@<TRIPOS>MOLECULE
M00
   40    41     1     0     0
SMALL
No Charge or Current Charge


@<TRIPOS>ATOM
      1 CAA          5.4210     0.1720    -2.3670 c3         1 M00      -0.089100
      2 CAI          5.6740     0.6250    -0.9120 c3         1 M00      -0.086400
      3 CAU          4.8030    -0.1030     0.1450 c3         1 M00       0.111700
      4 CAJ          5.1750     0.2900     1.6020 c3         1 M00       0.144600
      5 OAD          4.8070     1.6530     1.8860 oh         1 M00      -0.668000
      6 NAN          3.3710     0.1220    -0.0990 ns         1 M00      -0.496900
      7 CAP          2.5010    -0.7910    -0.6480 c          1 M00       0.597100
      8 OAB          2.8580    -1.9010    -1.0160 o          1 M00      -0.620100
      9 CAK          1.0580    -0.3040    -0.7970 c3         1 M00      -0.147400
     10 CAL          0.1160    -0.9780     0.2380 c3         1 M00      -0.110700
     11 CAQ         -1.3140    -0.5170     0.1400 cc         1 M00       0.506900
     12 NAM         -1.7790     0.4510     0.9280 nd         1 M00      -0.638100
     13 CAS         -3.1280     0.7810     0.7090 ca         1 M00       0.189400
     14 CAG         -3.6880     1.7950     1.5080 ca         1 M00      -0.107000
     15 CAE         -5.0290     2.1830     1.3520 ca         1 M00      -0.074000
     16 CAF         -5.8300     1.5540     0.3870 ca         1 M00      -0.134000
     17 CAH         -5.2880     0.5400    -0.4190 ca         1 M00      -0.039000
     18 CAT         -3.9400     0.1550    -0.2580 ca         1 M00      -0.204600
     19 CAR         -3.3440    -0.9130    -1.0980 c          1 M00       0.579600
     20 OAC         -3.9490    -1.5220    -1.9660 o          1 M00      -0.537000
     21 NAO         -2.0460    -1.1640    -0.8200 ns         1 M00      -0.432400
     22 H1           6.1140     0.6800    -3.0490 hc         1 M00       0.035700
     23 H2           5.5720    -0.9090    -2.4680 hc         1 M00       0.035700
     24 H3           4.3990     0.4120    -2.6830 hc         1 M00       0.035700
     25 H4           6.7320     0.4560    -0.6750 hc         1 M00       0.050200
     26 H5           5.5060     1.7070    -0.8430 hc         1 M00       0.050200
     27 H6           5.0090    -1.1790     0.0520 h1         1 M00       0.084700
     28 H7           4.6530    -0.3880     2.2910 h1         1 M00       0.029200
     29 H8           6.2530     0.1440     1.7520 h1         1 M00       0.029200
     30 H9           5.0720     1.8340     2.8160 ho         1 M00       0.446000
     31 H10          2.9830     1.0110     0.1930 hn         1 M00       0.321500
     32 H11          1.0120     0.7820    -0.6520 hc         1 M00       0.076200
     33 H12          0.7100    -0.5550    -1.8060 hc         1 M00       0.076200
     34 H13          0.1630    -2.0680     0.1220 hc         1 M00       0.076200
     35 H14          0.4910    -0.7700     1.2480 hc         1 M00       0.076200
     36 H15         -3.0730     2.2870     2.2580 ha         1 M00       0.131000
     37 H16         -5.4460     2.9690     1.9780 ha         1 M00       0.117000
     38 H17         -6.8690     1.8510     0.2620 ha         1 M00       0.120000
     39 H18         -5.9160     0.0570    -1.1670 ha         1 M00       0.135000
     40 H19         -1.6050    -1.8840    -1.3730 hn         1 M00       0.330500
@<TRIPOS>BOND
     1     1     2 1   
     2     1    22 1   
     3     1    23 1   
     4     1    24 1   
     5     2     3 1   
     6     2    25 1   
     7     2    26 1   
     8     3     4 1   
     9     3     6 1   
    10     3    27 1   
    11     4     5 1   
    12     4    28 1   
    13     4    29 1   
    14     5    30 1   
    15     6     7 1   
    16     6    31 1   
    17     7     8 2   
    18     7     9 1   
    19     9    10 1   
    20     9    32 1   
    21     9    33 1   
    22    10    11 1   
    23    10    34 1   
    24    10    35 1   
    25    11    12 2   
    26    11    21 1   
    27    12    13 1   
    28    13    14 ar  
    29    13    18 ar  
    30    14    15 ar  
    31    14    36 1   
    32    15    16 ar  
    33    15    37 1   
    34    16    17 ar  
    35    16    38 1   
    36    17    18 ar  
    37    17    39 1   
    38    18    19 1   
    39    19    20 2   
    40    19    21 1   
    41    21    40 1   
@<TRIPOS>SUBSTRUCTURE
     1 M00         1 TEMP              0 ****  ****    0 ROOT
