@<TRIPOS>MOLECULE
M00
   40    41     1     0     0
SMALL
abcg2


@<TRIPOS>ATOM
      1 CAA          5.0690     1.4710    -2.0030 c3         1 M00      -0.089100
      2 CAI          5.5750     1.0560    -0.6290 c3         1 M00      -0.086400
      3 CAU          4.8490    -0.1650    -0.0660 c3         1 M00       0.111700
      4 CAJ          5.4550    -0.6650     1.2370 c3         1 M00       0.144600
      5 OAD          5.3400     0.3430     2.2150 oh         1 M00      -0.668000
      6 NAN          3.4340     0.1060     0.0960 ns         1 M00      -0.496900
      7 CAP          2.4480    -0.6360    -0.4310 c          1 M00       0.597100
      8 OAB          2.6430    -1.6530    -1.0850 o          1 M00      -0.620100
      9 CAK          1.0520    -0.0920    -0.1960 c3         1 M00      -0.147400
     10 CAL          0.0220    -1.2040    -0.1270 c3         1 M00      -0.110700
     11 CAQ         -1.3880    -0.7130    -0.0370 cc         1 M00       0.506900
     12 NAM         -1.6830     0.5300    -0.1600 nd         1 M00      -0.638100
     13 CAS         -3.0100     0.8890    -0.0890 ca         1 M00       0.189400
     14 CAG         -3.3500     2.2410    -0.2280 ca         1 M00      -0.107000
     15 CAE         -4.6690     2.6350    -0.1650 ca         1 M00      -0.074000
     16 CAF         -5.6870     1.6970     0.0390 ca         1 M00      -0.134000
     17 CAH         -5.3700     0.3630     0.1790 ca         1 M00      -0.039000
     18 CAT         -4.0350    -0.0480     0.1150 ca         1 M00      -0.204600
     19 CAR         -3.6830    -1.4540     0.2590 c          1 M00       0.579600
     20 OAC         -4.4680    -2.3670     0.4430 o          1 M00      -0.537000
     21 NAO         -2.3290    -1.6820     0.1670 ns         1 M00      -0.432400
     22 H1           5.6510     2.3040    -2.3960 hc         1 M00       0.035700
     23 H2           5.1430     0.6490    -2.7170 hc         1 M00       0.035700
     24 H3           4.0250     1.7860    -1.9700 hc         1 M00       0.035700
     25 H4           6.6390     0.8130    -0.6910 hc         1 M00       0.050200
     26 H5           5.4940     1.8950     0.0670 hc         1 M00       0.050200
     27 H6           4.9380    -0.9820    -0.7850 h1         1 M00       0.084700
     28 H7           4.9310    -1.5810     1.5380 h1         1 M00       0.029200
     29 H8           6.5020    -0.9370     1.0520 h1         1 M00       0.029200
     30 H9           5.6970     0.0060     3.0410 ho         1 M00       0.446000
     31 H10          3.1800     0.9110     0.6470 hn         1 M00       0.321500
     32 H11          1.0200     0.5160     0.7100 hc         1 M00       0.076200
     33 H12          0.8230     0.5840    -1.0240 hc         1 M00       0.076200
     34 H13          0.1000    -1.8470    -1.0080 hc         1 M00       0.076200
     35 H14          0.2170    -1.8520     0.7320 hc         1 M00       0.076200
     36 H15         -2.5590     2.9640    -0.3850 ha         1 M00       0.131000
     37 H16         -4.9200     3.6820    -0.2740 ha         1 M00       0.117000
     38 H17         -6.7180     2.0180     0.0870 ha         1 M00       0.120000
     39 H18         -6.1480    -0.3720     0.3360 ha         1 M00       0.135000
     40 H19         -2.0210    -2.6430     0.2600 hn         1 M00       0.330500
@<TRIPOS>BOND
     1     1     2 1   
     2     1    22 1   
     3     1    23 1   
     4     1    24 1   
     5     2     3 1   
     6     2    25 1   
     7     2    26 1   
     8     3     4 1   
     9     3     6 1   
    10     3    27 1   
    11     4     5 1   
    12     4    28 1   
    13     4    29 1   
    14     5    30 1   
    15     6     7 1   
    16     6    31 1   
    17     7     8 2   
    18     7     9 1   
    19     9    10 1   
    20     9    32 1   
    21     9    33 1   
    22    10    11 1   
    23    10    34 1   
    24    10    35 1   
    25    11    12 2   
    26    11    21 1   
    27    12    13 1   
    28    13    14 ar  
    29    13    18 ar  
    30    14    15 ar  
    31    14    36 1   
    32    15    16 ar  
    33    15    37 1   
    34    16    17 ar  
    35    16    38 1   
    36    17    18 ar  
    37    17    39 1   
    38    18    19 1   
    39    19    20 2   
    40    19    21 1   
    41    21    40 1   
@<TRIPOS>SUBSTRUCTURE
     1 M00         1 TEMP              0 ****  ****    0 ROOT
