@<TRIPOS>MOLECULE
M01
   33    35     1     0     0
SMALL
No Charge or Current Charge


@<TRIPOS>ATOM
      1 N1           4.8280     9.2860     4.8130 nb         1 M01      -0.310000
      2 C2           3.4920     9.4880     4.8430 ca         1 M01       0.185900
      3 N3           2.7080     9.8600     3.8080 nb         1 M01      -0.222000
      4 C4           3.3390    10.0450     2.6360 ca         1 M01       0.120500
      5 C5           4.6940     9.8680     2.4850 ca         1 M01      -0.088600
      6 C7           5.4500     9.4690     3.6270 ca         1 M01       0.455900
      7 C9          11.0190     7.8520     4.0850 c3         1 M01       0.147800
      8 N7           5.1010    10.1460     1.1780 nc         1 M01      -0.560100
      9 C8           3.9490    10.4790     0.5720 cd         1 M01       0.398700
     10 N9           2.8420    10.4290     1.4240 na         1 M01      -0.412300
     11 C10          9.7720     8.7090     3.7190 c6         1 M01      -0.105700
     12 C15          8.9590     9.0760     4.9890 c6         1 M01      -0.098900
     13 C14          7.7120     9.9280     4.6460 c6         1 M01       0.212300
     14 C12          7.5750     8.8580     2.3910 c6         1 M01       0.212300
     15 N10         11.8990     7.5730     2.9320 n8         1 M01      -0.992200
     16 C11          8.8280     8.0020     2.7070 c6         1 M01      -0.098900
     17 N6           6.8520     9.2440     3.6360 nh         1 M01      -0.751300
     18 H2           2.9960     9.3360     5.8010 h5         1 M01       0.046100
     19 H9           1.8820    10.6400     1.1830 hn         1 M01       0.370000
     20 H9C1        11.6060     8.3860     4.8470 h1         1 M01       0.053700
     21 H9C2        10.6870     6.8990     4.5210 h1         1 M01       0.053700
     22 H10         10.1460     9.6390     3.2670 hc         1 M01       0.042700
     23 H101        11.3460     7.1080     2.2020 hn         1 M01       0.392000
     24 H102        12.1690     8.4630     2.4980 hn         1 M01       0.392000
     25 H8           3.8430    10.7640    -0.4690 h5         1 M01       0.065800
     26 H111         9.3560     7.7890     1.7680 hc         1 M01       0.051700
     27 H112         8.5080     7.0320     3.1110 hc         1 M01       0.051700
     28 H151         8.6400     8.1610     5.5070 hc         1 M01       0.051700
     29 H152         9.5920     9.6290     5.6960 hc         1 M01       0.051700
     30 H121         7.8780     9.7570     1.8340 h1         1 M01       0.070950
     31 H122         6.9200     8.2680     1.7330 h1         1 M01       0.070950
     32 H141         7.1590    10.1210     5.5770 h1         1 M01       0.070950
     33 H142         8.0380    10.9060     4.2600 h1         1 M01       0.070950
@<TRIPOS>BOND
     1     1     2 ar  
     2     1     6 ar  
     3     2     3 ar  
     4     2    18 1   
     5     3     4 ar  
     6     4     5 ar  
     7     4    10 1   
     8     5     6 ar  
     9     5     8 1   
    10     6    17 1   
    11     7    11 1   
    12     7    15 1   
    13     7    20 1   
    14     7    21 1   
    15     8     9 2   
    16     9    10 1   
    17     9    25 1   
    18    10    19 1   
    19    11    12 1   
    20    11    16 1   
    21    11    22 1   
    22    12    13 1   
    23    12    28 1   
    24    12    29 1   
    25    13    17 1   
    26    13    32 1   
    27    13    33 1   
    28    14    16 1   
    29    14    17 1   
    30    14    30 1   
    31    14    31 1   
    32    15    23 1   
    33    15    24 1   
    34    16    26 1   
    35    16    27 1   
@<TRIPOS>SUBSTRUCTURE
     1 M01         1 TEMP              0 ****  ****    0 ROOT
