@<TRIPOS>MOLECULE
M01
   33    35     1     0     0
SMALL
abcg2


@<TRIPOS>ATOM
      1 N1           5.2250    10.0390     4.8230 nb         1 M01      -0.310000
      2 C2           3.9170     9.8630     4.9500 ca         1 M01       0.185900
      3 N3           3.0280     9.6270     4.0040 nb         1 M01      -0.222000
      4 C4           3.6040     9.5780     2.8040 ca         1 M01       0.120500
      5 C5           4.9570     9.7450     2.5090 ca         1 M01      -0.088600
      6 C7           5.8090     9.9960     3.6160 ca         1 M01       0.455900
      7 C9          10.3200     7.3600     3.9110 c3         1 M01       0.147800
      8 N7           5.1560     9.6250     1.1520 nc         1 M01      -0.560100
      9 C8           3.9740     9.3970     0.6580 cd         1 M01       0.398700
     10 N9           3.0020     9.3570     1.6060 na         1 M01      -0.412300
     11 C10          9.5970     8.6950     3.7200 c6         1 M01      -0.105700
     12 C15          8.7460     9.0280     4.9440 c6         1 M01      -0.098900
     13 C14          7.9530    10.3140     4.7450 c6         1 M01       0.212300
     14 C12          7.9270    10.0030     2.3490 c6         1 M01       0.212300
     15 N10         11.2380     6.9550     2.8600 n8         1 M01      -0.992200
     16 C11          8.7290     8.7110     2.4620 c6         1 M01      -0.098900
     17 N6           7.1330    10.2180     3.5470 nh         1 M01      -0.751300
     18 H2           3.5360     9.9190     5.9650 h5         1 M01       0.046100
     19 H9           2.0180     9.2030     1.4470 hn         1 M01       0.370000
     20 H9C1        10.8780     7.3980     4.8520 h1         1 M01       0.053700
     21 H9C2         9.5730     6.5690     4.0340 h1         1 M01       0.053700
     22 H10         10.3570     9.4820     3.6140 hc         1 M01       0.042700
     23 H101        10.7440     6.8670     1.9810 hn         1 M01       0.392000
     24 H102        11.9340     7.6760     2.7160 hn         1 M01       0.392000
     25 H8           3.7520     9.2500    -0.3870 h5         1 M01       0.065800
     26 H111         9.3440     8.6100     1.5640 hc         1 M01       0.051700
     27 H112         8.0400     7.8580     2.4770 hc         1 M01       0.051700
     28 H151         8.0450     8.2090     5.1420 hc         1 M01       0.051700
     29 H152         9.3790     9.1280     5.8300 hc         1 M01       0.051700
     30 H121         8.6130    10.8520     2.2490 h1         1 M01       0.070950
     31 H122         7.2930     9.9920     1.4690 h1         1 M01       0.070950
     32 H141         7.3240    10.5280     5.6040 h1         1 M01       0.070950
     33 H142         8.6380    11.1570     4.6110 h1         1 M01       0.070950
@<TRIPOS>BOND
     1     1     2 ar  
     2     1     6 ar  
     3     2     3 ar  
     4     2    18 1   
     5     3     4 ar  
     6     4     5 ar  
     7     4    10 1   
     8     5     6 ar  
     9     5     8 1   
    10     6    17 1   
    11     7    11 1   
    12     7    15 1   
    13     7    20 1   
    14     7    21 1   
    15     8     9 2   
    16     9    10 1   
    17     9    25 1   
    18    10    19 1   
    19    11    12 1   
    20    11    16 1   
    21    11    22 1   
    22    12    13 1   
    23    12    28 1   
    24    12    29 1   
    25    13    17 1   
    26    13    32 1   
    27    13    33 1   
    28    14    16 1   
    29    14    17 1   
    30    14    30 1   
    31    14    31 1   
    32    15    23 1   
    33    15    24 1   
    34    16    26 1   
    35    16    27 1   
@<TRIPOS>SUBSTRUCTURE
     1 M01         1 TEMP              0 ****  ****    0 ROOT
