@<TRIPOS>MOLECULE
M02
   30    32     1     0     0
SMALL
No Charge or Current Charge


@<TRIPOS>ATOM
      1 CAK          9.1080     9.0510     5.2360 c6         1 M02      -0.100900
      2 CAM          9.9380     8.5570     4.0330 c6         1 M02       0.162500
      3 CAP          7.9250     9.9280     4.7650 c6         1 M02       0.213800
      4 CAO          9.0290     7.7970     3.0440 c6         1 M02      -0.100900
      5 C7           7.8410     8.6800     2.5930 c6         1 M02       0.213800
      6 N6           7.0820     9.2090     3.7630 nh         1 M02      -0.755300
      7 C6           5.6950     9.4990     3.6610 ca         1 M02       0.460900
      8 C5           5.0180     9.8370     2.4510 ca         1 M02      -0.089600
      9 N7           5.5040     9.9840     1.1490 nc         1 M02      -0.559100
     10 C4           3.6680    10.0910     2.5140 ca         1 M02       0.120500
     11 N9           3.2530    10.3950     1.2500 na         1 M02      -0.413300
     12 C8           4.4020    10.3190     0.4570 cd         1 M02       0.398700
     13 N10         11.0510     7.7010     4.4810 n8         1 M02      -0.994200
     14 N3           2.9720    10.0360     3.6620 nb         1 M02      -0.224000
     15 C2           3.6830     9.7160     4.7640 ca         1 M02       0.186900
     16 N1           5.0060     9.4480     4.8220 nb         1 M02      -0.312000
     17 HAM         10.3820     9.4240     3.5210 h1         1 M02       0.010700
     18 HAO1         9.6030     7.4810     2.1630 hc         1 M02       0.058950
     19 HAO2         8.6410     6.8840     3.5150 hc         1 M02       0.058950
     20 HAK1         8.7210     8.1950     5.8060 hc         1 M02       0.058950
     21 HAK2         9.7400     9.6290     5.9240 hc         1 M02       0.058950
     22 H101        11.6310     7.4620     3.6690 hn         1 M02       0.394000
     23 H102        11.6820     8.2610     5.0660 hn         1 M02       0.394000
     24 H7C1         8.2170     9.5120     1.9770 h1         1 M02       0.069950
     25 H7C2         7.1880     8.0670     1.9540 h1         1 M02       0.069950
     26 HAP1         7.3360    10.2170     5.6480 h1         1 M02       0.069950
     27 HAP2         8.3170    10.8570     4.3250 h1         1 M02       0.069950
     28 H2           3.1330     9.6700     5.7030 h5         1 M02       0.045100
     29 H9           2.3190    10.6310     0.9410 hn         1 M02       0.369000
     30 H8           4.3630    10.5210    -0.6080 h5         1 M02       0.065800
@<TRIPOS>BOND
     1     1     2 1   
     2     1     3 1   
     3     1    20 1   
     4     1    21 1   
     5     2     4 1   
     6     2    13 1   
     7     2    17 1   
     8     3     6 1   
     9     3    26 1   
    10     3    27 1   
    11     4     5 1   
    12     4    18 1   
    13     4    19 1   
    14     5     6 1   
    15     5    24 1   
    16     5    25 1   
    17     6     7 1   
    18     7     8 ar  
    19     7    16 ar  
    20     8     9 1   
    21     8    10 ar  
    22     9    12 2   
    23    10    11 1   
    24    10    14 ar  
    25    11    12 1   
    26    11    29 1   
    27    12    30 1   
    28    13    22 1   
    29    13    23 1   
    30    14    15 ar  
    31    15    16 ar  
    32    15    28 1   
@<TRIPOS>SUBSTRUCTURE
     1 M02         1 TEMP              0 ****  ****    0 ROOT
