@<TRIPOS>MOLECULE
M02
   30    32     1     0     0
SMALL
bcc


@<TRIPOS>ATOM
      1 CAK          8.8230     8.8420     5.1760 c6         1 M02      -0.100900
      2 CAM          9.7180     8.3980     4.0240 c6         1 M02       0.162500
      3 CAP          8.1200    10.1530     4.8460 c6         1 M02       0.213800
      4 CAO          8.9020     8.3380     2.7370 c6         1 M02      -0.100900
      5 C7           8.1910     9.6610     2.4760 c6         1 M02       0.213800
      6 N6           7.3590    10.0230     3.6120 nh         1 M02      -0.755300
      7 C6           6.0170     9.9750     3.6100 ca         1 M02       0.789200
      8 C5           5.2020     9.7430     2.4700 ca         1 M02      -0.220200
      9 N7           5.4580     9.4940     1.1410 nc         1 M02      -0.559100
     10 C4           3.8250     9.7650     2.6900 ca         1 M02       0.448800
     11 N9           3.2670     9.5260     1.4740 na         1 M02      -0.363000
     12 C8           4.2870     9.3730     0.5910 cd         1 M02       0.398700
     13 N10         10.2970     7.0950     4.3110 n8         1 M02      -0.883800
     14 N3           3.1940     9.9770     3.8440 nb         1 M02      -0.750000
     15 C2           4.0530    10.1770     4.8260 ca         1 M02       0.712900
     16 N1           5.3770    10.1830     4.7710 nb         1 M02      -0.838000
     17 HAM         10.4860     9.1790     3.8880 h1         1 M02       0.010700
     18 HAO1         9.5510     8.1110     1.8860 hc         1 M02       0.058950
     19 HAO2         8.1650     7.5330     2.8110 hc         1 M02       0.058950
     20 HAK1         8.0770     8.0670     5.3780 hc         1 M02       0.058950
     21 HAK2         9.4130     8.9710     6.0870 hc         1 M02       0.058950
     22 H101        10.9410     6.8440     3.5710 hn         1 M02       0.338800
     23 H102        10.8620     7.1560     5.1500 hn         1 M02       0.338800
     24 H7C1         8.9310    10.4570     2.3360 h1         1 M02       0.069950
     25 H7C2         7.5950     9.6090     1.5710 h1         1 M02       0.069950
     26 HAP1         7.4620    10.4610     5.6510 h1         1 M02       0.069950
     27 HAP2         8.8600    10.9460     4.6990 h1         1 M02       0.069950
     28 H2           3.6270    10.3570     5.8080 h5         1 M02       0.045100
     29 H9           2.2810     9.4740     1.2660 hn         1 M02       0.318700
     30 H8           4.1060     9.1710    -0.4540 h5         1 M02       0.065800
@<TRIPOS>BOND
     1     1     2 1   
     2     1     3 1   
     3     1    20 1   
     4     1    21 1   
     5     2     4 1   
     6     2    13 1   
     7     2    17 1   
     8     3     6 1   
     9     3    26 1   
    10     3    27 1   
    11     4     5 1   
    12     4    18 1   
    13     4    19 1   
    14     5     6 1   
    15     5    24 1   
    16     5    25 1   
    17     6     7 1   
    18     7     8 ar  
    19     7    16 ar  
    20     8     9 1   
    21     8    10 ar  
    22     9    12 2   
    23    10    11 1   
    24    10    14 ar  
    25    11    12 1   
    26    11    29 1   
    27    12    30 1   
    28    13    22 1   
    29    13    23 1   
    30    14    15 ar  
    31    15    16 ar  
    32    15    28 1   
@<TRIPOS>SUBSTRUCTURE
     1 M02         1 TEMP              0 ****  ****    0 ROOT
