@<TRIPOS>MOLECULE
M03
   44    47     1     0     0
SMALL
No Charge or Current Charge


@<TRIPOS>ATOM
      1 N1           6.7820     8.9770     3.3000 nh         1 M03      -0.776300
      2 C2           7.4540     8.4940     2.0660 c6         1 M03       0.223300
      3 C3           8.6910     7.6150     2.4020 c6         1 M03      -0.083400
      4 C4           9.7130     8.3330     3.3520 c6         1 M03      -0.042700
      5 C5          10.8320     7.3230     3.7830 c3         1 M03       0.158800
      6 N6          11.7170     6.8870     2.6800 n8         1 M03      -0.997200
      7 C7           8.8840     8.7190     4.6230 c6         1 M03      -0.083400
      8 C8           7.6860     9.6380     4.2810 c6         1 M03       0.223300
      9 C9          10.4070     9.5840     2.7180 ca         1 M03      -0.067300
     10 C10         11.1190    10.4890     3.5440 ca         1 M03      -0.106000
     11 C11         11.7610    11.6170     3.0030 ca         1 M03      -0.100000
     12 C12         11.7180    11.8560     1.6240 ca         1 M03       0.119000
     13 Cl1         12.5230    13.2660     0.9480 cl         1 M03      -0.201000
     14 C14         11.0440    10.9610     0.7830 ca         1 M03      -0.100000
     15 C15         10.4020     9.8310     1.3210 ca         1 M03      -0.106000
     16 C16          5.3800     9.1220     3.3840 ca         1 M03       0.445900
     17 N17          4.8260     8.8930     4.5940 nb         1 M03      -0.309000
     18 C18          3.4800     9.0120     4.6860 ca         1 M03       0.181900
     19 N19          2.6240     9.3430     3.6920 nb         1 M03      -0.234000
     20 C20          3.1860     9.5780     2.4940 ca         1 M03       0.143500
     21 N21          2.6150     9.9500     1.2850 na         1 M03      -0.316400
     22 C22          3.5930    10.1240     0.2830 cc         1 M03      -0.182100
     23 C23          4.7840     9.8360     0.9230 cd         1 M03      -0.208200
     24 C24          4.5430     9.4810     2.3060 ca         1 M03      -0.248800
     25 H2C1         6.7570     7.8900     1.4650 h1         1 M03       0.058950
     26 HA2          7.7590     9.3510     1.4500 h1         1 M03       0.058950
     27 H8C1         8.0560    10.5900     3.8720 h1         1 M03       0.058950
     28 H8C2         7.1530     9.8770     5.2130 h1         1 M03       0.058950
     29 HA1          8.3300     6.6970     2.8860 hc         1 M03       0.052200
     30 HB2          9.1690     7.2760     1.4750 hc         1 M03       0.052200
     31 HB1         11.4550     7.7960     4.5560 h1         1 M03       0.056200
     32 HC2         10.3660     6.4350     4.2340 h1         1 M03       0.056200
     33 H7C1         8.4950     7.8090     5.1020 hc         1 M03       0.052200
     34 H7C2         9.5060     9.1980     5.3880 hc         1 M03       0.052200
     35 HC1         11.1420     6.4510     1.9510 hn         1 M03       0.398000
     36 HD2         12.0840     7.7280     2.2190 hn         1 M03       0.398000
     37 H10         11.1940    10.3240     4.6150 ha         1 M03       0.115500
     38 H15          9.9090     9.1590     0.6270 ha         1 M03       0.115500
     39 H11         12.2970    12.3020     3.6550 ha         1 M03       0.130500
     40 H14         11.0240    11.1390    -0.2890 ha         1 M03       0.130500
     41 H18          3.0400     8.8220     5.6640 h5         1 M03       0.043100
     42 H21          1.6170    10.0840     1.1560 hn         1 M03       0.362000
     43 H22          3.3720    10.4290    -0.7380 h4         1 M03       0.216000
     44 H23          5.7560     9.8980     0.4400 ha         1 M03       0.200000
@<TRIPOS>BOND
     1     1     2 1   
     2     1     8 1   
     3     1    16 1   
     4     2     3 1   
     5     2    25 1   
     6     2    26 1   
     7     3     4 1   
     8     3    29 1   
     9     3    30 1   
    10     4     5 1   
    11     4     7 1   
    12     4     9 1   
    13     5     6 1   
    14     5    31 1   
    15     5    32 1   
    16     6    35 1   
    17     6    36 1   
    18     7     8 1   
    19     7    33 1   
    20     7    34 1   
    21     8    27 1   
    22     8    28 1   
    23     9    10 ar  
    24     9    15 ar  
    25    10    11 ar  
    26    10    37 1   
    27    11    12 ar  
    28    11    39 1   
    29    12    13 1   
    30    12    14 ar  
    31    14    15 ar  
    32    14    40 1   
    33    15    38 1   
    34    16    17 ar  
    35    16    24 ar  
    36    17    18 ar  
    37    18    19 ar  
    38    18    41 1   
    39    19    20 ar  
    40    20    21 1   
    41    20    24 ar  
    42    21    22 1   
    43    21    42 1   
    44    22    23 2   
    45    22    43 1   
    46    23    24 1   
    47    23    44 1   
@<TRIPOS>SUBSTRUCTURE
     1 M03         1 TEMP              0 ****  ****    0 ROOT
