@<TRIPOS>MOLECULE
M03
   44    47     1     0     0
SMALL
bcc


@<TRIPOS>ATOM
      1 N1           6.8170     9.2530     3.1810 nh         1 M03      -0.776300
      2 C2           7.4760     8.9090     1.9380 c6         1 M03       0.223300
      3 C3           8.6390     7.9490     2.1700 c6         1 M03      -0.083400
      4 C4           9.6480     8.4200     3.2200 c6         1 M03      -0.042700
      5 C5          10.6490     7.2790     3.5290 c3         1 M03       0.158800
      6 N6          11.5000     6.8320     2.4480 n8         1 M03      -0.886800
      7 C7           8.8280     8.7010     4.4860 c6         1 M03      -0.083400
      8 C8           7.7090     9.6980     4.2400 c6         1 M03       0.223300
      9 C9          10.4460     9.6410     2.7830 ca         1 M03      -0.067300
     10 C10         11.1640    10.3880     3.7210 ca         1 M03      -0.124000
     11 C11         11.9580    11.4620     3.3540 ca         1 M03      -0.118000
     12 C12         12.0520    11.8070     2.0150 ca         1 M03       0.027400
     13 CL1         13.0400    13.1520     1.5420 cl         1 M03      -0.109400
     14 C14         11.3690    11.0850     1.0540 ca         1 M03      -0.118000
     15 C15         10.5800    10.0110     1.4460 ca         1 M03      -0.124000
     16 C16          5.4750     9.3660     3.3030 ca         1 M03       0.774200
     17 N17          4.9910     9.5350     4.5410 nb         1 M03      -0.835000
     18 C18          3.6820     9.6030     4.7410 ca         1 M03       0.707900
     19 N19          2.7210     9.5300     3.8450 nb         1 M03      -0.760000
     20 C20          3.1970     9.3990     2.6050 ca         1 M03       0.471800
     21 N21          2.4410     9.3660     1.4850 na         1 M03      -0.266100
     22 C22          3.2560     9.2880     0.3880 cc         1 M03      -0.132100
     23 C23          4.5570     9.2590     0.7900 cd         1 M03      -0.158200
     24 C24          4.5510     9.3180     2.2240 ca         1 M03      -0.379400
     25 H2C1         6.7760     8.4010     1.2840 h1         1 M03       0.058950
     26 HA2          7.8130     9.8140     1.4200 h1         1 M03       0.058950
     27 H8C1         8.1310    10.6720     3.9630 h1         1 M03       0.058950
     28 H8C2         7.1310     9.8410     5.1470 h1         1 M03       0.058950
     29 HA1          8.2290     6.9930     2.5100 hc         1 M03       0.052200
     30 HB2          9.1080     7.7440     1.2050 hc         1 M03       0.052200
     31 HB1         11.2820     7.5940     4.3640 h1         1 M03       0.056200
     32 HC2         10.0760     6.4200     3.8920 h1         1 M03       0.056200
     33 H7C1         8.3980     7.7580     4.8360 hc         1 M03       0.052200
     34 H7C2         9.4500     9.0740     5.3020 hc         1 M03       0.052200
     35 HC1         10.9500     6.4080     1.7120 hn         1 M03       0.342800
     36 HD2         11.9840     7.6160     2.0280 hn         1 M03       0.342800
     37 H10         11.1210    10.1370     4.7730 ha         1 M03       0.133500
     38 H15         10.0620     9.4680     0.6680 ha         1 M03       0.133500
     39 H11         12.4990    12.0190     4.1060 ha         1 M03       0.148500
     40 H14         11.4440    11.3470     0.0070 ha         1 M03       0.148500
     41 H18          3.3730     9.7300     5.7740 h5         1 M03       0.043100
     42 H21          1.4350     9.4150     1.4670 hn         1 M03       0.311700
     43 H22          2.8420     9.2640    -0.6070 h4         1 M03       0.166000
     44 H23          5.3950     9.2170     0.1160 ha         1 M03       0.150000
@<TRIPOS>BOND
     1     1     2 1   
     2     1     8 1   
     3     1    16 1   
     4     2     3 1   
     5     2    25 1   
     6     2    26 1   
     7     3     4 1   
     8     3    29 1   
     9     3    30 1   
    10     4     5 1   
    11     4     7 1   
    12     4     9 1   
    13     5     6 1   
    14     5    31 1   
    15     5    32 1   
    16     6    35 1   
    17     6    36 1   
    18     7     8 1   
    19     7    33 1   
    20     7    34 1   
    21     8    27 1   
    22     8    28 1   
    23     9    10 ar  
    24     9    15 ar  
    25    10    11 ar  
    26    10    37 1   
    27    11    12 ar  
    28    11    39 1   
    29    12    13 1   
    30    12    14 ar  
    31    14    15 ar  
    32    14    40 1   
    33    15    38 1   
    34    16    17 ar  
    35    16    24 ar  
    36    17    18 ar  
    37    18    19 ar  
    38    18    41 1   
    39    19    20 ar  
    40    20    21 1   
    41    20    24 ar  
    42    21    22 1   
    43    21    42 1   
    44    22    23 2   
    45    22    43 1   
    46    23    24 1   
    47    23    44 1   
@<TRIPOS>SUBSTRUCTURE
     1 M03         1 TEMP              0 ****  ****    0 ROOT
