@<TRIPOS>MOLECULE
M04
   47    50     1     0     0
SMALL
No Charge or Current Charge


@<TRIPOS>ATOM
      1 N1           7.4150     9.5360     3.4690 nh         1 M04      -0.756300
      2 C2           7.9590     8.3950     2.6820 c6         1 M04       0.211800
      3 C3           9.3940     8.7000     2.1800 c6         1 M04      -0.101900
      4 C5          10.5900     7.8420     4.3220 c3         1 M04       0.150800
      5 N6          11.1650     6.6280     3.6990 n8         1 M04      -1.004200
      6 C7           9.7280    10.2480     4.1310 c6         1 M04      -0.101900
      7 C8           8.2820     9.9520     4.6100 c6         1 M04       0.211800
      8 C9          11.8370    10.7130     1.8970 ca         1 M04      -0.074300
      9 C10         11.6690    10.5940     0.5030 ca         1 M04      -0.100000
     10 C11         11.7210    11.7330    -0.3190 ca         1 M04      -0.100000
     11 C12         11.9500    12.9970     0.2470 ca         1 M04       0.122000
     12 Cl1         12.0150    14.4220    -0.7820 cl         1 M04      -0.205000
     13 C14         12.1340    13.1240     1.6330 ca         1 M04      -0.100000
     14 C15         12.0820    11.9840     2.4560 ca         1 M04      -0.100000
     15 C16          6.0190     9.7300     3.5270 ca         1 M04       0.434900
     16 N17          5.4250     9.7190     4.7410 nb         1 M04      -0.302000
     17 C13         11.7930     9.4720     2.7910 c3         1 M04      -0.027100
     18 C18          4.0820     9.8990     4.7640 ca         1 M04       0.178900
     19 N19          3.2680    10.0940     3.6980 nb         1 M04      -0.230000
     20 C20          3.8750    10.1120     2.4980 ca         1 M04       0.142500
     21 N21          3.3660    10.3040     1.2210 na         1 M04      -0.316400
     22 C22          4.3890    10.2770     0.2470 cc         1 M04      -0.180100
     23 C23          5.5420    10.0540     0.9770 cd         1 M04      -0.209200
     24 C24          5.2300     9.9390     2.3820 ca         1 M04      -0.243800
     25 C4          10.3740     9.0610     3.3450 c6         1 M04      -0.077000
     26 H2C1         7.9640     7.4810     3.2940 h1         1 M04       0.064950
     27 H2C2         7.3220     8.1820     1.8110 h1         1 M04       0.064950
     28 H8C1         7.8840    10.8660     5.0760 h1         1 M04       0.064950
     29 H8C2         8.2910     9.1750     5.3880 h1         1 M04       0.064950
     30 H3C1         9.7710     7.8490     1.5990 hc         1 M04       0.053200
     31 H3C2         9.3280     9.5390     1.4750 hc         1 M04       0.053200
     32 H5C1         9.6340     7.5580     4.7820 h1         1 M04       0.054200
     33 H5C2        11.2570     8.1590     5.1380 h1         1 M04       0.054200
     34 H6N1        10.5730     6.3470     2.9110 hn         1 M04       0.396000
     35 H6N2        12.0570     6.8740     3.2560 hn         1 M04       0.396000
     36 H7C1         9.6860    11.1420     3.4950 hc         1 M04       0.053200
     37 H7C2        10.3510    10.5190     4.9950 hc         1 M04       0.053200
     38 H10         11.4940     9.6180     0.0550 ha         1 M04       0.114000
     39 H15         12.2270    12.0910     3.5280 ha         1 M04       0.114000
     40 H131        12.2290     8.6370     2.2290 hc         1 M04       0.046700
     41 H132        12.4760     9.6290     3.6350 hc         1 M04       0.046700
     42 H11         11.5850    11.6370    -1.3940 ha         1 M04       0.130000
     43 H14         12.3160    14.1030     2.0690 ha         1 M04       0.130000
     44 H18          3.6060     9.8850     5.7430 h5         1 M04       0.043100
     45 H21          2.3810    10.4520     1.0280 hn         1 M04       0.362000
     46 H22          4.2210    10.4190    -0.8190 h4         1 M04       0.216000
     47 H23          6.5410     9.9960     0.5480 ha         1 M04       0.200000
@<TRIPOS>BOND
     1     1     2 1   
     2     1     7 1   
     3     1    15 1   
     4     2     3 1   
     5     2    26 1   
     6     2    27 1   
     7     3    25 1   
     8     3    30 1   
     9     3    31 1   
    10     4     5 1   
    11     4    25 1   
    12     4    32 1   
    13     4    33 1   
    14     5    34 1   
    15     5    35 1   
    16     6     7 1   
    17     6    25 1   
    18     6    36 1   
    19     6    37 1   
    20     7    28 1   
    21     7    29 1   
    22     8     9 ar  
    23     8    14 ar  
    24     8    17 1   
    25     9    10 ar  
    26     9    38 1   
    27    10    11 ar  
    28    10    42 1   
    29    11    12 1   
    30    11    13 ar  
    31    13    14 ar  
    32    13    43 1   
    33    14    39 1   
    34    15    16 ar  
    35    15    24 ar  
    36    16    18 ar  
    37    17    25 1   
    38    17    40 1   
    39    17    41 1   
    40    18    19 ar  
    41    18    44 1   
    42    19    20 ar  
    43    20    21 1   
    44    20    24 ar  
    45    21    22 1   
    46    21    45 1   
    47    22    23 2   
    48    22    46 1   
    49    23    24 1   
    50    23    47 1   
@<TRIPOS>SUBSTRUCTURE
     1 M04         1 TEMP              0 ****  ****    0 ROOT
