@<TRIPOS>MOLECULE
M04
   47    50     1     0     0
SMALL
bcc


@<TRIPOS>ATOM
      1 N1           7.4230     8.8960     3.8300 nh         1 M04      -0.756300
      2 C2           8.0140     7.9050     2.9550 c6         1 M04       0.211800
      3 C3           9.3060     8.4330     2.3460 c6         1 M04      -0.101900
      4 C5          10.9010     7.6460     4.1620 c3         1 M04       0.150800
      5 N6          11.6220     6.6500     3.3940 n8         1 M04      -0.893800
      6 C7           9.6130     9.7670     4.4490 c6         1 M04      -0.101900
      7 C8           8.2940     9.1880     4.9580 c6         1 M04       0.211800
      8 C9          11.1830    10.8800     2.0220 ca         1 M04      -0.074300
      9 C10         10.8620    10.8530     0.6660 ca         1 M04      -0.118000
     10 C11         10.5520    12.0110    -0.0320 ca         1 M04      -0.118000
     11 C12         10.5710    13.2240     0.6360 ca         1 M04       0.030400
     12 CL1         10.1910    14.6810    -0.2280 cl         1 M04      -0.113400
     13 C14         10.9020    13.2920     1.9790 ca         1 M04      -0.118000
     14 C15         11.2060    12.1200     2.6580 ca         1 M04      -0.118000
     15 C16          6.4940     9.7940     3.4240 ca         1 M04       0.763200
     16 N17          6.0890    10.6890     4.3340 nb         1 M04      -0.828000
     17 C13         11.5080     9.6190     2.7690 c3         1 M04      -0.027100
     18 C18          5.1330    11.5570     4.0350 ca         1 M04       0.704900
     19 N19          4.4820    11.6840     2.8980 nb         1 M04      -0.756000
     20 C20          4.9040    10.8160     1.9760 ca         1 M04       0.470800
     21 N21          4.4480    10.7570     0.7050 na         1 M04      -0.266100
     22 C22          5.1300     9.7860     0.0230 cc         1 M04      -0.130100
     23 C23          6.0360     9.1980     0.8520 cd         1 M04      -0.159200
     24 C24          5.9060     9.8380     2.1310 ca         1 M04      -0.374400
     25 C4          10.3170     8.8720     3.4170 c6         1 M04      -0.077000
     26 H2C1         8.2070     7.0140     3.5580 h1         1 M04       0.064950
     27 H2C2         7.3080     7.5910     2.1940 h1         1 M04       0.064950
     28 H8C1         7.8040     9.8860     5.6300 h1         1 M04       0.064950
     29 H8C2         8.4510     8.2600     5.5140 h1         1 M04       0.064950
     30 H3C1         9.7490     7.6740     1.6950 hc         1 M04       0.053200
     31 H3C2         9.0580     9.2790     1.6990 hc         1 M04       0.053200
     32 H5C1        10.0990     7.1260     4.6930 h1         1 M04       0.054200
     33 H5C2        11.5710     8.0240     4.9400 h1         1 M04       0.054200
     34 H6N1        11.0390     6.2540     2.6680 hn         1 M04       0.340800
     35 H6N2        12.4250     7.0560     2.9320 hn         1 M04       0.340800
     36 H7C1         9.3950    10.7440     4.0090 hc         1 M04       0.053200
     37 H7C2        10.2820     9.9510     5.2970 hc         1 M04       0.053200
     38 H10         10.8570     9.9100     0.1320 ha         1 M04       0.132000
     39 H15         11.4740    12.1810     3.7060 ha         1 M04       0.132000
     40 H131        12.0090     8.9320     2.0820 hc         1 M04       0.046700
     41 H132        12.2300     9.8460     3.5590 hc         1 M04       0.046700
     42 H11         10.3070    11.9630    -1.0850 ha         1 M04       0.148000
     43 H14         10.9320    14.2430     2.4940 ha         1 M04       0.148000
     44 H18          4.8560    12.2420     4.8310 h5         1 M04       0.043100
     45 H21          3.7280    11.3470     0.3220 hn         1 M04       0.311700
     46 H22          4.9190     9.5900    -1.0150 h4         1 M04       0.166000
     47 H23          6.7100     8.4160     0.5490 ha         1 M04       0.150000
@<TRIPOS>BOND
     1     1     2 1   
     2     1     7 1   
     3     1    15 1   
     4     2     3 1   
     5     2    26 1   
     6     2    27 1   
     7     3    25 1   
     8     3    30 1   
     9     3    31 1   
    10     4     5 1   
    11     4    25 1   
    12     4    32 1   
    13     4    33 1   
    14     5    34 1   
    15     5    35 1   
    16     6     7 1   
    17     6    25 1   
    18     6    36 1   
    19     6    37 1   
    20     7    28 1   
    21     7    29 1   
    22     8     9 ar  
    23     8    14 ar  
    24     8    17 1   
    25     9    10 ar  
    26     9    38 1   
    27    10    11 ar  
    28    10    42 1   
    29    11    12 1   
    30    11    13 ar  
    31    13    14 ar  
    32    13    43 1   
    33    14    39 1   
    34    15    16 ar  
    35    15    24 ar  
    36    16    18 ar  
    37    17    25 1   
    38    17    40 1   
    39    17    41 1   
    40    18    19 ar  
    41    18    44 1   
    42    19    20 ar  
    43    20    21 1   
    44    20    24 ar  
    45    21    22 1   
    46    21    45 1   
    47    22    23 2   
    48    22    46 1   
    49    23    24 1   
    50    23    47 1   
@<TRIPOS>SUBSTRUCTURE
     1 M04         1 TEMP              0 ****  ****    0 ROOT
