@<TRIPOS>MOLECULE
M05
   45    48     1     0     0
SMALL
abcg2


@<TRIPOS>ATOM
      1 N1          -6.7650    -8.0700    -8.1540 nh         1 M05      -0.758300
      2 C8          -7.9590    -8.4780    -7.4360 c6         1 M05       0.219800
      3 C4         -10.2400    -7.1380    -9.2060 c3         1 M05      -0.048100
      4 C5          -9.3080    -8.3160    -9.5510 c6         1 M05       0.135000
      5 N6         -10.0370    -9.1860   -10.5340 nz         1 M05      -0.978000
      6 C2          -7.0790    -7.1600    -9.2390 c6         1 M05       0.219800
      7 C9         -11.5340    -7.5200    -8.5410 ca         1 M05      -0.140300
      8 C10        -12.6760    -7.7760    -9.2970 ca         1 M05      -0.107000
      9 C11        -13.8700    -8.1510    -8.6970 ca         1 M05      -0.087500
     10 C12        -13.9220    -8.2620    -7.3180 ca         1 M05       0.137000
     11 CL1        -15.4050    -8.7280    -6.5550 cl         1 M05      -0.150000
     12 C14        -12.8070    -7.9960    -6.5370 ca         1 M05      -0.087500
     13 C15        -11.6240    -7.6260    -7.1550 ca         1 M05      -0.107000
     14 C16         -5.7000    -8.9220    -8.2220 ca         1 M05       0.393900
     15 N17         -5.8270   -10.1090    -7.6290 nb         1 M05      -0.301000
     16 C18         -4.8170   -10.9730    -7.6520 ca         1 M05       0.168900
     17 N19         -3.6420   -10.8200    -8.2220 nb         1 M05      -0.185000
     18 C20         -3.5030    -9.6230    -8.7930 ca         1 M05       0.135500
     19 N21         -2.3810    -9.1690    -9.3960 na         1 M05      -0.307400
     20 C22         -2.5790    -7.8790    -9.8080 cc         1 M05      -0.144100
     21 C23         -3.8420    -7.4840    -9.4860 cd         1 M05      -0.228200
     22 C3          -8.9380    -9.1950    -8.3580 c6         1 M05      -0.135900
     23 C17         -8.0370    -7.8100   -10.2380 c6         1 M05      -0.135900
     24 C24         -4.4680    -8.5990    -8.8390 ca         1 M05      -0.224800
     25 H8C1        -7.6900    -9.1290    -6.6100 h1         1 M05       0.085200
     26 H8C2        -8.4120    -7.5820    -7.0050 h1         1 M05       0.085200
     27 H2C1        -7.5080    -6.2470    -8.8210 h1         1 M05       0.085200
     28 H2C2        -6.1850    -6.8560    -9.7710 h1         1 M05       0.085200
     29 H3C1        -8.4600   -10.1120    -8.7160 hc         1 M05       0.073200
     30 H3C2        -9.8280    -9.5030    -7.8050 hc         1 M05       0.073200
     31 H4C1        -9.6920    -6.4480    -8.5630 hc         1 M05       0.084200
     32 H4C2       -10.4470    -6.5870   -10.1280 hc         1 M05       0.084200
     33 H6N1       -10.2630    -8.6920   -11.3990 hn         1 M05       0.505667
     34 H6N2        -9.4840   -10.0030   -10.8010 hn         1 M05       0.505667
     35 H171        -7.5220    -8.6470   -10.7190 hc         1 M05       0.073200
     36 H172        -8.2850    -7.0900   -11.0210 hc         1 M05       0.073200
     37 H10        -12.6520    -7.6640   -10.3750 ha         1 M05       0.114500
     38 H15        -10.7610    -7.4060    -6.5380 ha         1 M05       0.114500
     39 H11        -14.7450    -8.3440    -9.3020 ha         1 M05       0.149000
     40 H14        -12.8590    -8.0720    -5.4590 ha         1 M05       0.149000
     41 H18         -4.9940   -11.9180    -7.1490 h5         1 M05       0.056100
     42 H21         -1.5270    -9.6930    -9.5000 hn         1 M05       0.376000
     43 H22         -1.7920    -7.3320   -10.3010 h4         1 M05       0.231000
     44 H23         -4.2400    -6.5020    -9.6790 ha         1 M05       0.206000
     45 H4         -10.9150    -9.5440   -10.1510 hn         1 M05       0.505667
@<TRIPOS>BOND
     1     1     2 1   
     2     1     6 1   
     3     1    14 1   
     4     2    22 1   
     5     2    25 1   
     6     2    26 1   
     7     3     4 1   
     8     3     7 1   
     9     3    31 1   
    10     3    32 1   
    11     4     5 1   
    12     4    22 1   
    13     4    23 1   
    14     5    33 1   
    15     5    34 1   
    16     5    45 1   
    17     6    23 1   
    18     6    27 1   
    19     6    28 1   
    20     7     8 ar  
    21     7    13 ar  
    22     8     9 ar  
    23     8    37 1   
    24     9    10 ar  
    25     9    39 1   
    26    10    11 1   
    27    10    12 ar  
    28    12    13 ar  
    29    12    40 1   
    30    13    38 1   
    31    14    15 ar  
    32    14    24 ar  
    33    15    16 ar  
    34    16    17 ar  
    35    16    41 1   
    36    17    18 ar  
    37    18    19 1   
    38    18    24 ar  
    39    19    20 1   
    40    19    42 1   
    41    20    21 2   
    42    20    43 1   
    43    21    24 1   
    44    21    44 1   
    45    22    29 1   
    46    22    30 1   
    47    23    35 1   
    48    23    36 1   
@<TRIPOS>SUBSTRUCTURE
     1 M05         1 TEMP              0 ****  ****    0 ROOT
