@<TRIPOS>MOLECULE
M05
   45    48     1     0     0
SMALL
No Charge or Current Charge


@<TRIPOS>ATOM
      1 N1          -6.8030    -9.0000    -8.8340 nh         1 M05      -0.758300
      2 C8          -7.9380    -9.2350    -7.8920 c6         1 M05       0.219800
      3 C4         -10.0720    -7.2920    -9.2410 c3         1 M05      -0.048100
      4 C5          -9.5820    -8.6760    -9.7850 c6         1 M05       0.135000
      5 N6         -10.6990    -9.3130   -10.5910 nz         1 M05      -0.978000
      6 C2          -7.0890    -8.0820    -9.9710 c6         1 M05       0.219800
      7 C9         -11.3770    -7.3460    -8.4470 ca         1 M05      -0.140300
      8 C10        -12.6150    -7.1990    -9.1050 ca         1 M05      -0.107000
      9 C11        -13.8160    -7.2460    -8.3750 ca         1 M05      -0.087500
     10 C12        -13.7850    -7.4330    -6.9840 ca         1 M05       0.137000
     11 Cl1        -15.2880    -7.4910    -6.0710 cl         1 M05      -0.150000
     12 C14        -12.5560    -7.5680    -6.3200 ca         1 M05      -0.087500
     13 C15        -11.3540    -7.5210    -7.0490 ca         1 M05      -0.107000
     14 C16         -5.4890    -9.4080    -8.5170 ca         1 M05       0.393900
     15 N17         -5.3420   -10.6710    -8.0610 nb         1 M05      -0.301000
     16 C18         -4.0830   -11.0770    -7.7690 ca         1 M05       0.168900
     17 N19         -2.9470   -10.3490    -7.8830 nb         1 M05      -0.185000
     18 C20         -3.1050    -9.0900    -8.3290 ca         1 M05       0.135500
     19 N21         -2.1770    -8.0810    -8.5420 na         1 M05      -0.307400
     20 C22         -2.7950    -6.8920    -8.9870 cc         1 M05      -0.144100
     21 C23         -4.1390    -7.2160    -9.0460 cd         1 M05      -0.228200
     22 C3          -9.2060    -9.6740    -8.6640 c6         1 M05      -0.135900
     23 C17         -8.3650    -8.5280   -10.7280 c6         1 M05      -0.135900
     24 C24         -4.3460    -8.5930    -8.6480 ca         1 M05      -0.224800
     25 H8C1        -7.6900   -10.0160    -7.1570 h1         1 M05       0.085200
     26 H8C2        -8.1450    -8.3230    -7.3140 h1         1 M05       0.085200
     27 H2C1        -7.2070    -7.0490    -9.6120 h1         1 M05       0.085200
     28 H2C2        -6.2500    -8.0810   -10.6850 h1         1 M05       0.085200
     29 H3C1        -9.0160   -10.6650    -9.0980 hc         1 M05       0.073200
     30 H3C2       -10.0390    -9.8080    -7.9620 hc         1 M05       0.073200
     31 H4C1        -9.2960    -6.8230    -8.6240 hc         1 M05       0.084200
     32 H4C2       -10.2020    -6.6030   -10.0840 hc         1 M05       0.084200
     33 H6N1       -10.9740    -8.7520   -11.4090 hn         1 M05       0.505667
     34 H6N2       -10.4520   -10.2450   -10.9540 hn         1 M05       0.505667
     35 H171        -8.1570    -9.4870   -11.2210 hc         1 M05       0.073200
     36 H172        -8.5830    -7.8120   -11.5310 hc         1 M05       0.073200
     37 H10        -12.6510    -7.0440   -10.1810 ha         1 M05       0.114500
     38 H15        -10.4070    -7.6220    -6.5230 ha         1 M05       0.114500
     39 H11        -14.7700    -7.1350    -8.8850 ha         1 M05       0.149000
     40 H14        -12.5350    -7.7070    -5.2420 ha         1 M05       0.149000
     41 H18         -3.9710   -12.0970    -7.4050 h5         1 M05       0.056100
     42 H21         -1.1800    -8.1940    -8.3850 hn         1 M05       0.376000
     43 H22         -2.2600    -5.9690    -9.2010 h4         1 M05       0.231000
     44 H23         -4.9160    -6.5100    -9.3280 ha         1 M05       0.206000
     45 H4         -11.5540    -9.4400   -10.0310 hn         1 M05       0.505667
@<TRIPOS>BOND
     1     1     2 1   
     2     1     6 1   
     3     1    14 1   
     4     2    22 1   
     5     2    25 1   
     6     2    26 1   
     7     3     4 1   
     8     3     7 1   
     9     3    31 1   
    10     3    32 1   
    11     4     5 1   
    12     4    22 1   
    13     4    23 1   
    14     5    33 1   
    15     5    34 1   
    16     5    45 1   
    17     6    23 1   
    18     6    27 1   
    19     6    28 1   
    20     7     8 ar  
    21     7    13 ar  
    22     8     9 ar  
    23     8    37 1   
    24     9    10 ar  
    25     9    39 1   
    26    10    11 1   
    27    10    12 ar  
    28    12    13 ar  
    29    12    40 1   
    30    13    38 1   
    31    14    15 ar  
    32    14    24 ar  
    33    15    16 ar  
    34    16    17 ar  
    35    16    41 1   
    36    17    18 ar  
    37    18    19 1   
    38    18    24 ar  
    39    19    20 1   
    40    19    42 1   
    41    20    21 2   
    42    20    43 1   
    43    21    24 1   
    44    21    44 1   
    45    22    29 1   
    46    22    30 1   
    47    23    35 1   
    48    23    36 1   
@<TRIPOS>SUBSTRUCTURE
     1 M05         1 TEMP              0 ****  ****    0 ROOT
