@<TRIPOS>MOLECULE
M06
   42    45     1     0     0
SMALL
bcc


@<TRIPOS>ATOM
      1 C            0.3910    -2.5350    -0.8500 cc         1 M06       0.035800
      2 N           -1.2240    -0.8960     0.6990 n          1 M06      -0.335000
      3 O            1.6610    -0.6260    -1.4490 os         1 M06      -0.218200
      4 CL           4.5210    -0.3480     2.7600 cl         1 M06      -0.098400
      5 C1          -0.7340    -3.0490    -0.1550 cc         1 M06      -0.235000
      6 C2          -1.4980    -2.2210     0.5940 cd         1 M06       0.026600
      7 C3          -0.1700    -0.2960     0.0340 c          1 M06       0.688700
      8 C4           0.6390    -1.1990    -0.7410 cd         1 M06      -0.067100
      9 C5           2.7420    -0.1500    -0.7900 ca         1 M06       0.153100
     10 C6           1.2640    -3.4350    -1.6630 c3         1 M06      -0.061900
     11 C7           3.6010     0.6580    -1.5230 ca         1 M06      -0.117000
     12 C8           4.7470     1.1470    -0.9090 ca         1 M06       0.026000
     13 C9           5.0530     0.8550     0.4190 ca         1 M06      -0.120000
     14 C10          4.1760     0.0460     1.1150 ca         1 M06       0.055400
     15 C11          3.0260    -0.4670     0.5330 ca         1 M06      -0.177000
     16 O12          0.0400     0.9110     0.1250 o          1 M06      -0.642500
     17 C13         -3.0690     0.7160     0.6690 cc         1 M06      -0.140300
     18 N14         -2.7960     1.8680     0.0450 na         1 M06       0.103800
     19 N15         -3.7820     2.3830    -0.6690 nc         1 M06      -0.233400
     20 C16         -4.7790     1.5140    -0.5060 ca         1 M06       0.282300
     21 C17         -4.3910     0.4330     0.3320 ca         1 M06      -0.238300
     22 N18         -5.9990     1.6460    -1.0640 nb         1 M06      -0.617000
     23 C19         -6.8430     0.6890    -0.7840 ca         1 M06       0.424200
     24 C20         -6.5640    -0.4340     0.0430 ca         1 M06      -0.265300
     25 C21         -5.3300    -0.5760     0.6140 ca         1 M06      -0.045000
     26 C22         -2.0900    -0.0320     1.5030 c3         1 M06       0.158200
     27 C23          5.6380     1.9740    -1.6590 cg         1 M06       0.230800
     28 N24          6.3570     2.6400    -2.2640 n1         1 M06      -0.349800
     29 H1          -0.9820    -4.0990    -0.2090 ha         1 M06       0.158000
     30 H2          -2.3580    -2.5750     1.1440 h4         1 M06       0.157000
     31 H16          2.2030    -3.6340    -1.1410 hc         1 M06       0.059367
     32 H26          0.7780    -4.3920    -1.8400 hc         1 M06       0.059367
     33 H36          1.5160    -2.9950    -2.6270 hc         1 M06       0.059367
     34 H7           3.3780     0.8990    -2.5540 ha         1 M06       0.165000
     35 H9           5.9470     1.2470     0.8830 ha         1 M06       0.162000
     36 H11          2.3730    -1.1090     1.1090 ha         1 M06       0.155000
     37 HN14        -1.8990     2.3340     0.0600 hn         1 M06       0.348700
     38 H19         -7.8310     0.7710    -1.2240 h4         1 M06       0.021100
     39 H20         -7.3440    -1.1640     0.2090 ha         1 M06       0.140000
     40 H21         -5.0970    -1.4220     1.2480 ha         1 M06       0.129000
     41 H122        -2.6220    -0.6640     2.2120 h1         1 M06       0.081200
     42 H222        -1.4680     0.6440     2.0880 h1         1 M06       0.081200
@<TRIPOS>BOND
     1     1     5 1   
     2     1     8 2   
     3     1    10 1   
     4     2     6 1   
     5     2     7 1   
     6     2    26 1   
     7     3     8 1   
     8     3     9 1   
     9     4    14 1   
    10     5     6 2   
    11     5    29 1   
    12     6    30 1   
    13     7     8 1   
    14     7    16 2   
    15     9    11 ar  
    16     9    15 ar  
    17    10    31 1   
    18    10    32 1   
    19    10    33 1   
    20    11    12 ar  
    21    11    34 1   
    22    12    13 ar  
    23    12    27 1   
    24    13    14 ar  
    25    13    35 1   
    26    14    15 ar  
    27    15    36 1   
    28    17    18 1   
    29    17    21 2   
    30    17    26 1   
    31    18    19 1   
    32    18    37 1   
    33    19    20 2   
    34    20    21 ar  
    35    20    22 ar  
    36    21    25 ar  
    37    22    23 ar  
    38    23    24 ar  
    39    23    38 1   
    40    24    25 ar  
    41    24    39 1   
    42    25    40 1   
    43    26    41 1   
    44    26    42 1   
    45    27    28 3   
@<TRIPOS>SUBSTRUCTURE
     1 M06         1 TEMP              0 ****  ****    0 ROOT
