@<TRIPOS>MOLECULE
M06
   42    45     1     0     0
SMALL
No Charge or Current Charge


@<TRIPOS>ATOM
      1 C            0.3820    -2.7280    -0.9870 cc         1 M06       0.035800
      2 N           -1.2180    -0.9590     0.5800 n          1 M06      -0.268000
      3 O            1.9250    -1.0160    -1.4210 os         1 M06      -0.218200
      4 Cl           4.5000    -0.1600     2.9690 cl         1 M06      -0.190000
      5 C1          -0.8270    -3.1580    -0.3460 cc         1 M06      -0.285000
      6 C2          -1.5890    -2.2900     0.4040 cd         1 M06      -0.023400
      7 C3          -0.0560    -0.4260    -0.0250 c          1 M06       0.546200
      8 C4           0.7420    -1.4030    -0.8330 cd         1 M06      -0.067100
      9 C5           2.8970    -0.3110    -0.7470 ca         1 M06       0.153100
     10 C6           1.1820    -3.7320    -1.7810 c3         1 M06      -0.061900
     11 C7           3.6460     0.6510    -1.4430 ca         1 M06      -0.099000
     12 C8           4.6540     1.3800    -0.7800 ca         1 M06       0.026000
     13 C9           4.9120     1.1290     0.5820 ca         1 M06      -0.102000
     14 C10          4.1690     0.1560     1.2710 ca         1 M06       0.147000
     15 C11          3.1670    -0.5690     0.6100 ca         1 M06      -0.159000
     16 O12          0.2500     0.7560     0.0970 o          1 M06      -0.567000
     17 C13         -2.9900     0.7540     0.5400 cc         1 M06      -0.140300
     18 N14         -2.6070     1.8610    -0.2030 na         1 M06       0.053500
     19 N15         -3.6780     2.4050    -0.9220 nc         1 M06      -0.233400
     20 C16         -4.7540     1.5730    -0.5870 ca         1 M06       0.217000
     21 C17         -4.3750     0.5710     0.2870 ca         1 M06      -0.173000
     22 N18         -6.0260     1.6730    -1.0250 nb         1 M06      -0.617000
     23 C19         -6.9250     0.7560    -0.5800 ca         1 M06       0.358900
     24 C20         -6.5910    -0.2870     0.3100 ca         1 M06      -0.182000
     25 C21         -5.2680    -0.3940     0.7680 ca         1 M06      -0.027000
     26 C22         -2.0610    -0.0620     1.4030 c3         1 M06       0.158200
     27 C23          5.4160     2.3710    -1.4900 cg         1 M06       0.320000
     28 N24          6.0430     3.1710    -2.0660 n1         1 M06      -0.439000
     29 H1          -1.1430    -4.1940    -0.4550 ha         1 M06       0.208000
     30 H2          -2.5140    -2.5690     0.9050 h4         1 M06       0.207000
     31 H16          2.1830    -3.8580    -1.3500 hc         1 M06       0.059367
     32 H26          0.7020    -4.7180    -1.8000 hc         1 M06       0.059367
     33 H36          1.3010    -3.4010    -2.8190 hc         1 M06       0.059367
     34 H7           3.4370     0.8330    -2.4940 ha         1 M06       0.147000
     35 H9           5.6870     1.6830     1.1070 ha         1 M06       0.144000
     36 H11          2.6060    -1.3260     1.1500 ha         1 M06       0.137000
     37 HN14        -1.6730     2.2580    -0.2650 hn         1 M06       0.399000
     38 H19         -7.9450     0.8600    -0.9500 h4         1 M06       0.021100
     39 H20         -7.3500    -0.9930     0.6320 ha         1 M06       0.122000
     40 H21         -4.9600    -1.1790     1.4550 ha         1 M06       0.111000
     41 H122        -2.6480    -0.6560     2.1150 h1         1 M06       0.081200
     42 H222        -1.4230     0.6050     1.9980 h1         1 M06       0.081200
@<TRIPOS>BOND
     1     1     5 1   
     2     1     8 2   
     3     1    10 1   
     4     2     6 1   
     5     2     7 1   
     6     2    26 1   
     7     3     8 1   
     8     3     9 1   
     9     4    14 1   
    10     5     6 2   
    11     5    29 1   
    12     6    30 1   
    13     7     8 1   
    14     7    16 2   
    15     9    11 ar  
    16     9    15 ar  
    17    10    31 1   
    18    10    32 1   
    19    10    33 1   
    20    11    12 ar  
    21    11    34 1   
    22    12    13 ar  
    23    12    27 1   
    24    13    14 ar  
    25    13    35 1   
    26    14    15 ar  
    27    15    36 1   
    28    17    18 1   
    29    17    21 2   
    30    17    26 1   
    31    18    19 1   
    32    18    37 1   
    33    19    20 2   
    34    20    21 ar  
    35    20    22 ar  
    36    21    25 ar  
    37    22    23 ar  
    38    23    24 ar  
    39    23    38 1   
    40    24    25 ar  
    41    24    39 1   
    42    25    40 1   
    43    26    41 1   
    44    26    42 1   
    45    27    28 3   
@<TRIPOS>SUBSTRUCTURE
     1 M06         1 TEMP              0 ****  ****    0 ROOT
