@<TRIPOS>MOLECULE
M07
   42    44     1     0     0
SMALL
No Charge or Current Charge


@<TRIPOS>ATOM
      1 C15          7.2520    -1.4410     0.7680 c3         1 M07       0.148900
      2 O8           6.4020    -1.1520    -0.3560 os         1 M07      -0.340100
      3 C12          5.1040    -0.7100    -0.2020 ca         1 M07       0.157100
      4 C11          4.5130    -0.5050     1.0620 ca         1 M07      -0.180500
      5 C10          3.1860    -0.0510     1.1550 ca         1 M07      -0.042500
      6 C13          4.3560    -0.4550    -1.3600 ca         1 M07      -0.180500
      7 C14          3.0290    -0.0020    -1.2700 ca         1 M07      -0.042500
      8 C9           2.4250     0.1970    -0.0090 ca         1 M07      -0.161900
      9 C8           1.0140     0.6970     0.0880 ce         1 M07       0.382900
     10 C7           0.0700     0.8890    -1.0800 c5         1 M07      -0.151700
     11 N1           0.4710     1.0620     1.2030 n2         1 M07      -0.256700
     12 O7          -0.8880     1.3760     1.0180 os         1 M07      -0.289000
     13 C1          -1.2720     0.9530    -0.3120 c5         1 M07       0.355000
     14 O5          -1.7190    -0.4270    -0.2000 os         1 M07      -0.447000
     15 C5          -3.0360    -0.6880     0.3730 c6         1 M07       0.147300
     16 C6          -3.3490    -2.2120     0.2010 c3         1 M07       0.170600
     17 O6          -2.3300    -3.0710     0.7490 oh         1 M07      -0.698000
     18 C4          -4.1490     0.2360    -0.2250 c6         1 M07       0.103300
     19 O4          -5.4110     0.0820     0.4620 oh         1 M07      -0.718000
     20 C3          -3.7000     1.7180    -0.1600 c6         1 M07       0.137300
     21 O3          -4.7220     2.5670    -0.7170 oh         1 M07      -0.669000
     22 C2          -2.3780     1.8710    -0.9470 c6         1 M07       0.168300
     23 O2          -2.0050     3.2650    -1.0240 oh         1 M07      -0.697000
     24 H151         6.8210    -2.2360     1.3900 h1         1 M07       0.043033
     25 H152         8.2380    -1.7780     0.4230 h1         1 M07       0.043033
     26 H153         7.3970    -0.5470     1.3880 h1         1 M07       0.043033
     27 H11          5.0650    -0.6890     1.9790 ha         1 M07       0.124000
     28 H10          2.7520     0.1000     2.1420 ha         1 M07       0.123000
     29 H13          4.8090    -0.6070    -2.3360 ha         1 M07       0.124000
     30 H14          2.4790     0.1940    -2.1880 ha         1 M07       0.123000
     31 H71          0.2870     1.8210    -1.6100 hc         1 M07       0.089700
     32 H72          0.1100     0.0640    -1.7980 hc         1 M07       0.089700
     33 H5          -2.9750    -0.4850     1.4520 h1         1 M07       0.086700
     34 H61         -4.3090    -2.4260     0.6890 h1         1 M07       0.022200
     35 H62         -3.4740    -2.4170    -0.8710 h1         1 M07       0.022200
     36 HO6         -2.5840    -3.9970     0.5270 ho         1 M07       0.502000
     37 H4          -4.2740    -0.0330    -1.2860 h1         1 M07       0.047700
     38 HO4         -5.8640    -0.7120     0.0890 ho         1 M07       0.509000
     39 H3          -3.5200     1.9820     0.8940 h1         1 M07       0.077700
     40 HO3         -5.5690     2.1760    -0.3970 ho         1 M07       0.464000
     41 H2          -2.5560     1.5000    -1.9680 h1         1 M07       0.046700
     42 HO2         -2.8680     3.7410    -1.0840 ho         1 M07       0.521000
@<TRIPOS>BOND
     1     1     2 1   
     2     1    24 1   
     3     1    25 1   
     4     1    26 1   
     5     2     3 1   
     6     3     4 ar  
     7     3     6 ar  
     8     4     5 ar  
     9     4    27 1   
    10     5     8 ar  
    11     5    28 1   
    12     6     7 ar  
    13     6    29 1   
    14     7     8 ar  
    15     7    30 1   
    16     8     9 1   
    17     9    10 1   
    18     9    11 2   
    19    10    13 1   
    20    10    31 1   
    21    10    32 1   
    22    11    12 1   
    23    12    13 1   
    24    13    14 1   
    25    13    22 1   
    26    14    15 1   
    27    15    16 1   
    28    15    18 1   
    29    15    33 1   
    30    16    17 1   
    31    16    34 1   
    32    16    35 1   
    33    17    36 1   
    34    18    19 1   
    35    18    20 1   
    36    18    37 1   
    37    19    38 1   
    38    20    21 1   
    39    20    22 1   
    40    20    39 1   
    41    21    40 1   
    42    22    23 1   
    43    22    41 1   
    44    23    42 1   
@<TRIPOS>SUBSTRUCTURE
     1 M07         1 TEMP              0 ****  ****    0 ROOT
