@<TRIPOS>MOLECULE
M07
   42    44     1     0     0
SMALL
abcg2


@<TRIPOS>ATOM
      1 C15          7.2840    -0.9220     0.7070 c3         1 M07       0.148900
      2 O8           6.4130    -0.8660    -0.4080 os         1 M07      -0.340100
      3 C12          5.1200    -0.5720    -0.2030 ca         1 M07       0.157100
      4 C11          4.5550    -0.3390     1.0520 ca         1 M07      -0.180500
      5 C10          3.2080    -0.0390     1.1570 ca         1 M07      -0.042500
      6 C13          4.3120    -0.5010    -1.3390 ca         1 M07      -0.180500
      7 C14          2.9700    -0.2010    -1.2200 ca         1 M07      -0.042500
      8 C9           2.3910     0.0370     0.0290 ca         1 M07      -0.161900
      9 C8           0.9710     0.3570     0.1290 ce         1 M07       0.382900
     10 C7           0.0410     0.4850    -1.0330 c5         1 M07      -0.151700
     11 N1           0.3990     0.5770     1.2470 n2         1 M07      -0.256700
     12 O7          -0.9290     0.8700     1.0420 os         1 M07      -0.289000
     13 C1          -1.2950     0.5960    -0.3100 c5         1 M07       0.355000
     14 O5          -1.9340    -0.6350    -0.3970 os         1 M07      -0.447000
     15 C5          -3.1750    -0.7580     0.2870 c6         1 M07       0.147300
     16 C6          -3.6710    -2.1670     0.0470 c3         1 M07       0.170600
     17 O6          -2.7660    -3.0780     0.6200 oh         1 M07      -0.698000
     18 C4          -4.1600     0.2900    -0.2360 c6         1 M07       0.103300
     19 O4          -5.3640     0.2840     0.4990 oh         1 M07      -0.718000
     20 C3          -3.5490     1.6780    -0.0980 c6         1 M07       0.137300
     21 O3          -4.3590     2.6670    -0.6830 oh         1 M07      -0.669000
     22 C2          -2.2000     1.7230    -0.8040 c6         1 M07       0.168300
     23 O2          -1.5290     2.9350    -0.6040 oh         1 M07      -0.697000
     24 H151         6.9980    -1.7100     1.4090 h1         1 M07       0.043033
     25 H152         8.2720    -1.1450     0.3140 h1         1 M07       0.043033
     26 H153         7.3230     0.0300     1.2400 h1         1 M07       0.043033
     27 H11          5.1480    -0.3880     1.9550 ha         1 M07       0.124000
     28 H10          2.7910     0.1400     2.1390 ha         1 M07       0.123000
     29 H13          4.7450    -0.6830    -2.3150 ha         1 M07       0.124000
     30 H14          2.3680    -0.1520    -2.1190 ha         1 M07       0.123000
     31 H71          0.2780     1.3710    -1.6260 hc         1 M07       0.089700
     32 H72          0.0640    -0.3770    -1.7000 hc         1 M07       0.089700
     33 H5          -3.0350    -0.6080     1.3670 h1         1 M07       0.086700
     34 H61         -4.6690    -2.2600     0.4910 h1         1 M07       0.022200
     35 H62         -3.7840    -2.3240    -1.0350 h1         1 M07       0.022200
     36 HO6         -3.1130    -3.9640     0.4890 ho         1 M07       0.502000
     37 H4          -4.3480     0.0960    -1.3030 h1         1 M07       0.047700
     38 HO4         -5.9870    -0.3140     0.0780 ho         1 M07       0.509000
     39 H3          -3.3980     1.8810     0.9740 h1         1 M07       0.077700
     40 HO3         -5.1980     2.6840    -0.2110 ho         1 M07       0.464000
     41 H2          -2.3740     1.5360    -1.8750 h1         1 M07       0.046700
     42 HO2         -1.9850     3.6190    -1.1030 ho         1 M07       0.521000
@<TRIPOS>BOND
     1     1     2 1   
     2     1    24 1   
     3     1    25 1   
     4     1    26 1   
     5     2     3 1   
     6     3     4 ar  
     7     3     6 ar  
     8     4     5 ar  
     9     4    27 1   
    10     5     8 ar  
    11     5    28 1   
    12     6     7 ar  
    13     6    29 1   
    14     7     8 ar  
    15     7    30 1   
    16     8     9 1   
    17     9    10 1   
    18     9    11 2   
    19    10    13 1   
    20    10    31 1   
    21    10    32 1   
    22    11    12 1   
    23    12    13 1   
    24    13    14 1   
    25    13    22 1   
    26    14    15 1   
    27    15    16 1   
    28    15    18 1   
    29    15    33 1   
    30    16    17 1   
    31    16    34 1   
    32    16    35 1   
    33    17    36 1   
    34    18    19 1   
    35    18    20 1   
    36    18    37 1   
    37    19    38 1   
    38    20    21 1   
    39    20    22 1   
    40    20    39 1   
    41    21    40 1   
    42    22    23 1   
    43    22    41 1   
    44    23    42 1   
@<TRIPOS>SUBSTRUCTURE
     1 M07         1 TEMP              0 ****  ****    0 ROOT
