@<TRIPOS>MOLECULE
M08
   38    40     1     0     0
SMALL
bcc


@<TRIPOS>ATOM
      1 C10          3.8490     0.5690    -1.2410 ca         1 M08      -0.099000
      2 C11          5.1620     0.9910    -1.1330 ca         1 M08      -0.134500
      3 C12          5.7470     1.1540     0.1190 ca         1 M08      -0.114000
      4 C13          5.0070     0.8900     1.2620 ca         1 M08      -0.134500
      5 C14          3.6890     0.4690     1.1580 ca         1 M08      -0.099000
      6 C9           3.0950     0.3040    -0.0930 ca         1 M08      -0.118900
      7 C8           1.7050    -0.1390    -0.1830 ce         1 M08       0.372900
      8 C7           0.8130    -0.4240     0.9810 c5         1 M08      -0.150700
      9 N1           1.1340    -0.3440    -1.3030 n2         1 M08      -0.349200
     10 O7          -0.1580    -0.7610    -1.0990 os         1 M08      -0.165300
     11 C1          -0.5230    -0.5750     0.2690 c5         1 M08       0.307600
     12 O5          -1.2230     0.6160     0.4200 os         1 M08      -0.401600
     13 C5          -2.4730     0.7090    -0.2520 c6         1 M08       0.123100
     14 C6          -3.0320     2.0830     0.0450 c3         1 M08       0.147400
     15 O6          -2.1720     3.0550    -0.4960 oh         1 M08      -0.575800
     16 C4          -3.4010    -0.4070     0.2340 c6         1 M08       0.081100
     17 O4          -4.6120    -0.4280    -0.4870 oh         1 M08      -0.595800
     18 C3          -2.7240    -1.7570     0.0290 c6         1 M08       0.114100
     19 O3          -3.4780    -2.8080     0.5810 oh         1 M08      -0.606800
     20 C2          -1.3650    -1.7670     0.7180 c6         1 M08       0.146100
     21 O2          -0.6380    -2.9350     0.4550 oh         1 M08      -0.574800
     22 H10          3.4040     0.4460    -2.2190 ha         1 M08       0.140000
     23 H11          5.7340     1.1940    -2.0290 ha         1 M08       0.133500
     24 H12          6.7740     1.4850     0.2000 ha         1 M08       0.132000
     25 H13          5.4540     1.0160     2.2400 ha         1 M08       0.133500
     26 H14          3.1260     0.2710     2.0610 ha         1 M08       0.140000
     27 H71          1.1260    -1.3390     1.4890 hc         1 M08       0.090700
     28 H72          0.7860     0.3770     1.7200 hc         1 M08       0.090700
     29 H5          -2.3340     0.6090    -1.3380 h1         1 M08       0.086700
     30 H61         -4.0350     2.1470    -0.3920 h1         1 M08       0.022200
     31 H62         -3.1460     2.1950     1.1320 h1         1 M08       0.022200
     32 HO6         -2.5730     3.9170    -0.3560 ho         1 M08       0.404000
     33 H4          -3.5830    -0.2690     1.3100 h1         1 M08       0.047700
     34 HO4         -5.2550     0.1280    -0.0380 ho         1 M08       0.411000
     35 H3          -2.5780    -1.9090    -1.0520 h1         1 M08       0.077700
     36 HO3         -4.3220    -2.8440     0.1180 ho         1 M08       0.425000
     37 H2          -1.5340    -1.6380     1.7980 h1         1 M08       0.047700
     38 HO2         -1.0520    -3.6610     0.9310 ho         1 M08       0.423000
@<TRIPOS>BOND
     1     1     2 ar  
     2     1     6 ar  
     3     1    22 1   
     4     2     3 ar  
     5     2    23 1   
     6     3     4 ar  
     7     3    24 1   
     8     4     5 ar  
     9     4    25 1   
    10     5     6 ar  
    11     5    26 1   
    12     6     7 1   
    13     7     8 1   
    14     7     9 2   
    15     8    11 1   
    16     8    27 1   
    17     8    28 1   
    18     9    10 1   
    19    10    11 1   
    20    11    12 1   
    21    11    20 1   
    22    12    13 1   
    23    13    14 1   
    24    13    16 1   
    25    13    29 1   
    26    14    15 1   
    27    14    30 1   
    28    14    31 1   
    29    15    32 1   
    30    16    17 1   
    31    16    18 1   
    32    16    33 1   
    33    17    34 1   
    34    18    19 1   
    35    18    20 1   
    36    18    35 1   
    37    19    36 1   
    38    20    21 1   
    39    20    37 1   
    40    21    38 1   
@<TRIPOS>SUBSTRUCTURE
     1 M08         1 TEMP              0 ****  ****    0 ROOT
