@<TRIPOS>MOLECULE
M08
   38    40     1     0     0
SMALL
No Charge or Current Charge


@<TRIPOS>ATOM
      1 C10          3.8350     0.7210    -1.2480 ca         1 M08      -0.081000
      2 C11          5.1100     1.3040    -1.1420 ca         1 M08      -0.116500
      3 C12          5.7010     1.4820     0.1190 ca         1 M08      -0.096000
      4 C13          5.0170     1.0730     1.2740 ca         1 M08      -0.116500
      5 C14          3.7420     0.4900     1.1720 ca         1 M08      -0.081000
      6 C9           3.1310     0.3130    -0.0910 ca         1 M08      -0.118900
      7 C8           1.7780    -0.3250    -0.2000 ce         1 M08       0.372900
      8 C7           0.8870    -0.6940     0.9680 c5         1 M08      -0.150700
      9 N1           1.2470    -0.6670    -1.3280 n2         1 M08      -0.250700
     10 O7          -0.0680    -1.1320    -1.1420 os         1 M08      -0.287000
     11 C1          -0.4610    -0.8430     0.2200 c5         1 M08       0.354000
     12 O5          -1.0470     0.4880     0.2130 os         1 M08      -0.448000
     13 C5          -2.3970     0.6510    -0.3170 c6         1 M08       0.146300
     14 C6          -2.8590     2.1200    -0.0340 c3         1 M08       0.170600
     15 O6          -1.9460     3.1140    -0.5370 oh         1 M08      -0.698000
     16 C4          -3.3960    -0.4210     0.2330 c6         1 M08       0.104300
     17 O4          -4.6830    -0.3510    -0.4210 oh         1 M08      -0.718000
     18 C3          -2.8010    -1.8420     0.0560 c6         1 M08       0.137300
     19 O3          -3.7180    -2.8280     0.5680 oh         1 M08      -0.669000
     20 C2          -1.4510    -1.9110     0.8070 c6         1 M08       0.169300
     21 O2          -0.9370    -3.2610     0.7800 oh         1 M08      -0.697000
     22 H10          3.3980     0.5920    -2.2360 ha         1 M08       0.122000
     23 H11          5.6400     1.6170    -2.0390 ha         1 M08       0.115500
     24 H12          6.6880     1.9320     0.2000 ha         1 M08       0.114000
     25 H13          5.4760     1.2050     2.2520 ha         1 M08       0.115500
     26 H14          3.2370     0.1740     2.0820 ha         1 M08       0.122000
     27 H71          1.2100    -1.6330     1.4260 hc         1 M08       0.090700
     28 H72          0.8590     0.0790     1.7420 hc         1 M08       0.090700
     29 H5          -2.3420     0.5300    -1.4090 h1         1 M08       0.086700
     30 H61         -3.8480     2.2660    -0.4890 h1         1 M08       0.022200
     31 H62         -2.9790     2.2370     1.0520 h1         1 M08       0.022200
     32 HO6         -2.2870     3.9910    -0.2460 ho         1 M08       0.503000
     33 H4          -3.5230    -0.2400     1.3110 h1         1 M08       0.047700
     34 HO4         -5.2060     0.3640     0.0150 ho         1 M08       0.510000
     35 H3          -2.6210    -2.0130    -1.0170 h1         1 M08       0.077700
     36 HO3         -4.6080    -2.5060     0.2910 ho         1 M08       0.464000
     37 H2          -1.6410    -1.6310     1.8540 h1         1 M08       0.047700
     38 HO2         -1.7460    -3.8270     0.8210 ho         1 M08       0.522000
@<TRIPOS>BOND
     1     1     2 ar  
     2     1     6 ar  
     3     1    22 1   
     4     2     3 ar  
     5     2    23 1   
     6     3     4 ar  
     7     3    24 1   
     8     4     5 ar  
     9     4    25 1   
    10     5     6 ar  
    11     5    26 1   
    12     6     7 1   
    13     7     8 1   
    14     7     9 2   
    15     8    11 1   
    16     8    27 1   
    17     8    28 1   
    18     9    10 1   
    19    10    11 1   
    20    11    12 1   
    21    11    20 1   
    22    12    13 1   
    23    13    14 1   
    24    13    16 1   
    25    13    29 1   
    26    14    15 1   
    27    14    30 1   
    28    14    31 1   
    29    15    32 1   
    30    16    17 1   
    31    16    18 1   
    32    16    33 1   
    33    17    34 1   
    34    18    19 1   
    35    18    20 1   
    36    18    35 1   
    37    19    36 1   
    38    20    21 1   
    39    20    37 1   
    40    21    38 1   
@<TRIPOS>SUBSTRUCTURE
     1 M08         1 TEMP              0 ****  ****    0 ROOT
