@<TRIPOS>MOLECULE
M09
   42    44     1     0     0
SMALL
abcg2


@<TRIPOS>ATOM
      1 C10         36.6100    24.1140    31.4390 ca         1 M09      -0.111500
      2 C11         37.3490    24.7910    32.3950 ca         1 M09      -0.043500
      3 C12         36.6880    25.6400    33.2730 ca         1 M09      -0.165200
      4 N2          37.4620    26.3620    34.2830 no         1 M09       0.673200
      5 O9          38.6730    26.1750    34.3290 o          1 M09      -0.392500
      6 O8          36.8680    27.1200    35.0390 o          1 M09      -0.392500
      7 C13         35.3120    25.8200    33.2190 ca         1 M09      -0.043500
      8 C14         34.5870    25.1290    32.2630 ca         1 M09      -0.111500
      9 C9          35.2240    24.2750    31.3580 ca         1 M09      -0.047300
     10 C8          34.4330    23.5030    30.3370 c5         1 M09       0.141800
     11 C7          35.1220    23.2380    28.9960 c5         1 M09      -0.107400
     12 N1          33.1980    24.2070    29.9540 n7         1 M09      -0.535900
     13 O7          32.8140    23.5990    28.6960 os         1 M09      -0.303300
     14 C1          33.9360    22.9000    28.1120 c5         1 M09       0.321000
     15 O5          33.7290    21.5090    28.1930 os         1 M09      -0.441000
     16 C5          32.5820    21.0040    27.4960 c6         1 M09       0.113300
     17 C6          32.4870    19.5160    27.7890 c3         1 M09       0.170600
     18 O6          33.5810    18.7570    27.2790 oh         1 M09      -0.710000
     19 C4          32.7110    21.3400    26.0120 c6         1 M09       0.094300
     20 O4          31.6040    20.8620    25.2510 oh         1 M09      -0.717000
     21 C3          32.8870    22.8420    25.8230 c6         1 M09       0.115300
     22 O3          33.1250    23.1560    24.4560 oh         1 M09      -0.640000
     23 C2          34.0590    23.3570    26.6480 c6         1 M09       0.162300
     24 O2          34.1970    24.7650    26.5670 oh         1 M09      -0.692000
     25 H10         37.1220    23.4550    30.7520 ha         1 M09       0.137000
     26 H11         38.4190    24.6690    32.4580 ha         1 M09       0.156000
     27 H13         34.8220    26.4840    33.9150 ha         1 M09       0.156000
     28 H14         33.5140    25.2550    32.2220 ha         1 M09       0.137000
     29 H8          34.1370    22.5440    30.7760 h1         1 M09       0.111700
     30 H71         35.8330    22.4180    29.0140 hc         1 M09       0.087700
     31 H72         35.6110    24.1430    28.6380 hc         1 M09       0.087700
     32 HN1         33.4620    25.1580    29.6860 hn         1 M09       0.395000
     33 H5          31.6750    21.4740    27.8950 h1         1 M09       0.058700
     34 H61         31.5370    19.1420    27.4000 h1         1 M09       0.058700
     35 H62         32.4900    19.3810    28.8710 h1         1 M09       0.058700
     36 HO6         33.4160    18.5580    26.3500 ho         1 M09       0.503000
     37 H4          33.5880    20.8330    25.6040 h1         1 M09       0.101700
     38 HO4         30.7910    21.2460    25.6080 ho         1 M09       0.505000
     39 H3          31.9700    23.3420    26.1650 h1         1 M09       0.041700
     40 HO3         32.4440    22.7030    23.9390 ho         1 M09       0.456000
     41 H2          34.9820    22.9370    26.2430 h1         1 M09       0.103700
     42 HO2         33.4170    25.1600    26.9830 ho         1 M09       0.508000
@<TRIPOS>BOND
     1     1     2 ar  
     2     1     9 ar  
     3     1    25 1   
     4     2     3 ar  
     5     2    26 1   
     6     3     4 1   
     7     3     7 ar  
     8     4     5 1   
     9     4     6 1   
    10     7     8 ar  
    11     7    27 1   
    12     8     9 ar  
    13     8    28 1   
    14     9    10 1   
    15    10    11 1   
    16    10    12 1   
    17    10    29 1   
    18    11    14 1   
    19    11    30 1   
    20    11    31 1   
    21    12    13 1   
    22    12    32 1   
    23    13    14 1   
    24    14    15 1   
    25    14    23 1   
    26    15    16 1   
    27    16    17 1   
    28    16    19 1   
    29    16    33 1   
    30    17    18 1   
    31    17    34 1   
    32    17    35 1   
    33    18    36 1   
    34    19    20 1   
    35    19    21 1   
    36    19    37 1   
    37    20    38 1   
    38    21    22 1   
    39    21    23 1   
    40    21    39 1   
    41    22    40 1   
    42    23    24 1   
    43    23    41 1   
    44    24    42 1   
@<TRIPOS>SUBSTRUCTURE
     1 M09         1 TEMP              0 ****  ****    0 ROOT
