@<TRIPOS>MOLECULE
M09
   42    44     1     0     0
SMALL
No Charge or Current Charge


@<TRIPOS>ATOM
      1 C10         35.9210    23.4450    32.4310 ca         1 M09      -0.111500
      2 C11         36.7600    24.1120    33.3410 ca         1 M09      -0.043500
      3 C12         36.8850    25.5190    33.3000 ca         1 M09      -0.165200
      4 N2          37.7780    26.2350    34.2680 no         1 M09       0.673200
      5 O9          38.3990    25.5600    35.1000 o          1 M09      -0.392500
      6 O8          37.8540    27.4680    34.1930 o          1 M09      -0.392500
      7 C13         36.1520    26.2400    32.3300 ca         1 M09      -0.043500
      8 C14         35.3150    25.5650    31.4230 ca         1 M09      -0.111500
      9 C9          35.1900    24.1590    31.4610 ca         1 M09      -0.047300
     10 C8          34.2860    23.3980    30.4860 c5         1 M09       0.141800
     11 C7          34.8650    23.5650    29.0670 c5         1 M09      -0.107400
     12 N1          32.9320    23.9610    30.3300 n7         1 M09      -0.535900
     13 O7          32.4770    23.3980    29.0520 os         1 M09      -0.303300
     14 C1          33.6490    23.0730    28.2390 c5         1 M09       0.321000
     15 O5          33.7510    21.6200    28.2260 os         1 M09      -0.441000
     16 C5          32.8150    20.8640    27.4040 c6         1 M09       0.113300
     17 C6          33.2410    19.3570    27.4380 c3         1 M09       0.170600
     18 O6          34.5860    19.1160    26.9680 oh         1 M09      -0.710000
     19 C4          32.6800    21.4420    25.9580 c6         1 M09       0.094300
     20 O4          31.6440    20.7710    25.2040 oh         1 M09      -0.717000
     21 C3          32.4090    22.9680    26.0040 c6         1 M09       0.115300
     22 O3          32.3250    23.4920    24.6670 oh         1 M09      -0.640000
     23 C2          33.5590    23.6530    26.7810 c6         1 M09       0.162300
     24 O2          33.3960    25.0890    26.7370 oh         1 M09      -0.692000
     25 H10         35.8420    22.3610    32.4820 ha         1 M09       0.137000
     26 H11         37.3100    23.5250    34.0760 ha         1 M09       0.156000
     27 H13         36.2240    27.3250    32.2690 ha         1 M09       0.156000
     28 H14         34.7650    26.1470    30.6870 ha         1 M09       0.137000
     29 H8          34.2230    22.3330    30.7570 h1         1 M09       0.111700
     30 H71         35.7630    22.9600    28.9050 hc         1 M09       0.087700
     31 H72         35.1190    24.6020    28.8260 hc         1 M09       0.087700
     32 HN1         32.9980    24.9720    30.1550 hn         1 M09       0.395000
     33 H5          31.8300    20.9340    27.8890 h1         1 M09       0.058700
     34 H61         32.5170    18.7730    26.8530 h1         1 M09       0.058700
     35 H62         33.1480    19.0160    28.4790 h1         1 M09       0.058700
     36 HO6         34.5550    19.1330    25.9840 ho         1 M09       0.503000
     37 H4          33.6500    21.2960    25.4550 h1         1 M09       0.101700
     38 HO4         30.7950    20.8710    25.6970 ho         1 M09       0.505000
     39 H3          31.4630    23.1460    26.5370 h1         1 M09       0.041700
     40 HO3         31.9160    22.7740    24.1310 ho         1 M09       0.456000
     41 H2          34.5010    23.3840    26.2780 h1         1 M09       0.103700
     42 HO2         32.9790    25.2590    25.8590 ho         1 M09       0.508000
@<TRIPOS>BOND
     1     1     2 ar  
     2     1     9 ar  
     3     1    25 1   
     4     2     3 ar  
     5     2    26 1   
     6     3     4 1   
     7     3     7 ar  
     8     4     5 1   
     9     4     6 1   
    10     7     8 ar  
    11     7    27 1   
    12     8     9 ar  
    13     8    28 1   
    14     9    10 1   
    15    10    11 1   
    16    10    12 1   
    17    10    29 1   
    18    11    14 1   
    19    11    30 1   
    20    11    31 1   
    21    12    13 1   
    22    12    32 1   
    23    13    14 1   
    24    14    15 1   
    25    14    23 1   
    26    15    16 1   
    27    16    17 1   
    28    16    19 1   
    29    16    33 1   
    30    17    18 1   
    31    17    34 1   
    32    17    35 1   
    33    18    36 1   
    34    19    20 1   
    35    19    21 1   
    36    19    37 1   
    37    20    38 1   
    38    21    22 1   
    39    21    23 1   
    40    21    39 1   
    41    22    40 1   
    42    23    24 1   
    43    23    41 1   
    44    24    42 1   
@<TRIPOS>SUBSTRUCTURE
     1 M09         1 TEMP              0 ****  ****    0 ROOT
