@<TRIPOS>MOLECULE
M0A
   52    55     1     0     0
SMALL
No Charge or Current Charge


@<TRIPOS>ATOM
      1 CAQ         -3.3380     5.4190     1.3580 c3         1 M0A      -0.089100
      2 CAP         -2.9720     4.4720     0.1990 c3         1 M0A      -0.076400
      3 CAO         -1.6200     3.7550     0.4100 c3         1 M0A      -0.077400
      4 CAN         -1.2520     2.8050    -0.7530 c3         1 M0A      -0.093700
      5 CAL          0.0500     2.0760    -0.5380 cc         1 M0A       0.388800
      6 NAK          1.2520     2.5800    -0.8650 nd         1 M0A      -0.559100
      7 CAH          2.1520     1.5760    -0.4740 ca         1 M0A      -0.038600
      8 CAG          3.5600     1.5500    -0.5820 ca         1 M0A       0.685900
      9 NAR          4.3050     2.5390    -1.0870 nv         1 M0A      -1.061900
     10 NAI          4.3170     0.5190    -0.2230 nb         1 M0A      -0.791000
     11 CAA          3.6880    -0.5810     0.2710 ca         1 M0A       0.335000
     12 CAC          4.4770    -1.6900     0.6320 ca         1 M0A      -0.106000
     13 CAE          3.8950    -2.8700     1.1180 ca         1 M0A      -0.091000
     14 CAF          2.5030    -2.9600     1.2380 ca         1 M0A      -0.136000
     15 CAD          1.6910    -1.8700     0.8900 ca         1 M0A      -0.076000
     16 CAB          2.2660    -0.6630     0.4230 ca         1 M0A      -0.095000
     17 CAJ          1.5150     0.4880     0.0590 ca         1 M0A      -0.025200
     18 NAM          0.1730     0.8180     0.0650 na         1 M0A      -0.149600
     19 CAS         -0.8820     0.0920     0.7990 c3         1 M0A       0.118900
     20 CAT         -1.6490    -0.9580    -0.0100 ca         1 M0A      -0.117300
     21 CAU         -2.8470    -1.4780     0.5190 ca         1 M0A      -0.109000
     22 CAV         -1.1940    -1.4250    -1.2640 ca         1 M0A      -0.088000
     23 CAX         -1.9300    -2.3910    -1.9690 ca         1 M0A      -0.111000
     24 CAY         -3.1250    -2.8990    -1.4340 ca         1 M0A      -0.078000
     25 CAW         -3.5900    -2.4460    -0.1850 ca         1 M0A      -0.084300
     26 CAZ         -4.8900    -2.9920     0.3930 c3         1 M0A       0.197100
     27 NBA         -4.6810    -4.2860     1.0680 n8         1 M0A      -0.999200
     28 H1          -3.4160     4.8660     2.3020 hc         1 M0A       0.033700
     29 H2          -2.5780     6.2010     1.4760 hc         1 M0A       0.033700
     30 H3          -4.3020     5.9040     1.1650 hc         1 M0A       0.033700
     31 H4          -3.7670     3.7250     0.0850 hc         1 M0A       0.038200
     32 H5          -2.9370     5.0480    -0.7340 hc         1 M0A       0.038200
     33 H6          -0.8270     4.5040     0.5240 hc         1 M0A       0.046700
     34 H7          -1.6570     3.1860     1.3470 hc         1 M0A       0.046700
     35 H8          -2.0600     2.0790    -0.9040 hc         1 M0A       0.064200
     36 H9          -1.1880     3.3840    -1.6820 hc         1 M0A       0.064200
     37 H10          3.8060     3.1970    -1.6740 hn         1 M0A       0.490500
     38 H11          5.2240     2.2560    -1.3990 hn         1 M0A       0.490500
     39 H12          5.5560    -1.6320     0.5260 ha         1 M0A       0.127000
     40 H13          4.5230    -3.7170     1.3880 ha         1 M0A       0.112000
     41 H14          2.0490    -3.8810     1.5980 ha         1 M0A       0.110000
     42 H15          0.6220    -2.0030     0.9750 ha         1 M0A       0.109000
     43 H16         -0.4530    -0.3580     1.7010 h1         1 M0A       0.069700
     44 H17         -1.6070     0.8300     1.1620 h1         1 M0A       0.069700
     45 H18         -3.2050    -1.1260     1.4850 ha         1 M0A       0.106000
     46 H19         -0.2700    -1.0520    -1.6990 ha         1 M0A       0.124000
     47 H20         -1.5730    -2.7470    -2.9330 ha         1 M0A       0.118000
     48 H21         -3.6890    -3.6480    -1.9860 ha         1 M0A       0.134000
     49 H22         -5.3040    -2.2770     1.1170 h1         1 M0A       0.034200
     50 H23         -5.6260    -3.1260    -0.4120 h1         1 M0A       0.034200
     51 H24         -4.0350    -4.1430     1.8520 hn         1 M0A       0.398500
     52 H25         -5.5580    -4.5680     1.5220 hn         1 M0A       0.398500
@<TRIPOS>BOND
     1     1     2 1   
     2     1    28 1   
     3     1    29 1   
     4     1    30 1   
     5     2     3 1   
     6     2    31 1   
     7     2    32 1   
     8     3     4 1   
     9     3    33 1   
    10     3    34 1   
    11     4     5 1   
    12     4    35 1   
    13     4    36 1   
    14     5     6 2   
    15     5    18 1   
    16     6     7 1   
    17     7     8 ar  
    18     7    17 ar  
    19     8     9 1   
    20     8    10 ar  
    21     9    37 1   
    22     9    38 1   
    23    10    11 ar  
    24    11    12 ar  
    25    11    16 ar  
    26    12    13 ar  
    27    12    39 1   
    28    13    14 ar  
    29    13    40 1   
    30    14    15 ar  
    31    14    41 1   
    32    15    16 ar  
    33    15    42 1   
    34    16    17 ar  
    35    17    18 1   
    36    18    19 1   
    37    19    20 1   
    38    19    43 1   
    39    19    44 1   
    40    20    21 ar  
    41    20    22 ar  
    42    21    25 ar  
    43    21    45 1   
    44    22    23 ar  
    45    22    46 1   
    46    23    24 ar  
    47    23    47 1   
    48    24    25 ar  
    49    24    48 1   
    50    25    26 1   
    51    26    27 1   
    52    26    49 1   
    53    26    50 1   
    54    27    51 1   
    55    27    52 1   
@<TRIPOS>SUBSTRUCTURE
     1 M0A         1 TEMP              0 ****  ****    0 ROOT
