@<TRIPOS>MOLECULE
M0A
   52    55     1     0     0
SMALL
abcg2


@<TRIPOS>ATOM
      1 CAQ         -3.0330     5.6890     1.3700 c3         1 M0A      -0.089100
      2 CAP         -2.7570     4.7580     0.1980 c3         1 M0A      -0.076400
      3 CAO         -1.4850     3.9430     0.3880 c3         1 M0A      -0.077400
      4 CAN         -1.1950     3.0350    -0.8110 c3         1 M0A      -0.093700
      5 CAL          0.0090     2.1830    -0.6150 cc         1 M0A       0.388800
      6 NAK          1.2050     2.4710    -1.0510 nd         1 M0A      -0.559100
      7 CAH          1.9970     1.4470    -0.6220 ca         1 M0A      -0.038600
      8 CAG          3.3950     1.2580    -0.8170 ca         1 M0A       0.685900
      9 NAR          4.1080     2.2020    -1.4680 nv         1 M0A      -1.061900
     10 NAI          3.9940     0.1980    -0.3380 nb         1 M0A      -0.791000
     11 CAA          3.2810    -0.7370     0.3520 ca         1 M0A       0.335000
     12 CAC          3.9850    -1.8580     0.8370 ca         1 M0A      -0.106000
     13 CAE          3.3480    -2.8550     1.5350 ca         1 M0A      -0.091000
     14 CAF          1.9700    -2.7800     1.7750 ca         1 M0A      -0.136000
     15 CAD          1.2510    -1.7000     1.3180 ca         1 M0A      -0.076000
     16 CAB          1.8820    -0.6590     0.6120 ca         1 M0A      -0.095000
     17 CAJ          1.2680     0.5130     0.0850 ca         1 M0A      -0.025200
     18 NAM         -0.0090     1.0090     0.0950 na         1 M0A      -0.149600
     19 CAS         -1.1770     0.4110     0.7020 c3         1 M0A       0.118900
     20 CAT         -1.7340    -0.7620    -0.0650 ca         1 M0A      -0.117300
     21 CAU         -2.6280    -1.6110     0.5830 ca         1 M0A      -0.109000
     22 CAV         -1.4050    -1.0110    -1.3910 ca         1 M0A      -0.088000
     23 CAX         -1.9690    -2.0970    -2.0490 ca         1 M0A      -0.111000
     24 CAY         -2.8610    -2.9340    -1.3980 ca         1 M0A      -0.078000
     25 CAW         -3.2050    -2.6940    -0.0690 ca         1 M0A      -0.084300
     26 CAZ         -4.2000    -3.5710     0.6490 c3         1 M0A       0.197100
     27 NBA         -4.0480    -4.9700     0.2910 n8         1 M0A      -0.999200
     28 H1          -3.1170     5.1330     2.3050 hc         1 M0A       0.033700
     29 H2          -2.2310     6.4200     1.4930 hc         1 M0A       0.033700
     30 H3          -3.9630     6.2410     1.2300 hc         1 M0A       0.033700
     31 H4          -3.6040     4.0790     0.0620 hc         1 M0A       0.038200
     32 H5          -2.6820     5.3410    -0.7250 hc         1 M0A       0.038200
     33 H6          -0.6330     4.6120     0.5400 hc         1 M0A       0.046700
     34 H7          -1.5700     3.3450     1.3000 hc         1 M0A       0.046700
     35 H8          -2.0690     2.4160    -1.0340 hc         1 M0A       0.064200
     36 H9          -1.0210     3.6490    -1.6970 hc         1 M0A       0.064200
     37 H10          3.6200     2.8980    -2.0050 hn         1 M0A       0.490500
     38 H11          5.0390     1.9720    -1.7720 hn         1 M0A       0.490500
     39 H12          5.0480    -1.9140     0.6400 ha         1 M0A       0.127000
     40 H13          3.9130    -3.7050     1.8970 ha         1 M0A       0.112000
     41 H14          1.4660    -3.5710     2.3140 ha         1 M0A       0.110000
     42 H15          0.1880    -1.6700     1.5030 ha         1 M0A       0.109000
     43 H16         -0.9350     0.1240     1.7260 h1         1 M0A       0.069700
     44 H17         -1.9430     1.1820     0.7950 h1         1 M0A       0.069700
     45 H18         -2.8750    -1.4270     1.6240 ha         1 M0A       0.106000
     46 H19         -0.7060    -0.3750    -1.9200 ha         1 M0A       0.124000
     47 H20         -1.7050    -2.2910    -3.0810 ha         1 M0A       0.118000
     48 H21         -3.2870    -3.7830    -1.9150 ha         1 M0A       0.134000
     49 H22         -4.1260    -3.3730     1.7270 h1         1 M0A       0.034200
     50 H23         -5.2080    -3.2590     0.3590 h1         1 M0A       0.034200
     51 H24         -3.1900    -5.3300     0.6890 hn         1 M0A       0.398500
     52 H25         -4.7980    -5.5060     0.7060 hn         1 M0A       0.398500
@<TRIPOS>BOND
     1     1     2 1   
     2     1    28 1   
     3     1    29 1   
     4     1    30 1   
     5     2     3 1   
     6     2    31 1   
     7     2    32 1   
     8     3     4 1   
     9     3    33 1   
    10     3    34 1   
    11     4     5 1   
    12     4    35 1   
    13     4    36 1   
    14     5     6 2   
    15     5    18 1   
    16     6     7 1   
    17     7     8 ar  
    18     7    17 ar  
    19     8     9 1   
    20     8    10 ar  
    21     9    37 1   
    22     9    38 1   
    23    10    11 ar  
    24    11    12 ar  
    25    11    16 ar  
    26    12    13 ar  
    27    12    39 1   
    28    13    14 ar  
    29    13    40 1   
    30    14    15 ar  
    31    14    41 1   
    32    15    16 ar  
    33    15    42 1   
    34    16    17 ar  
    35    17    18 1   
    36    18    19 1   
    37    19    20 1   
    38    19    43 1   
    39    19    44 1   
    40    20    21 ar  
    41    20    22 ar  
    42    21    25 ar  
    43    21    45 1   
    44    22    23 ar  
    45    22    46 1   
    46    23    24 ar  
    47    23    47 1   
    48    24    25 ar  
    49    24    48 1   
    50    25    26 1   
    51    26    27 1   
    52    26    49 1   
    53    26    50 1   
    54    27    51 1   
    55    27    52 1   
@<TRIPOS>SUBSTRUCTURE
     1 M0A         1 TEMP              0 ****  ****    0 ROOT
