@<TRIPOS>MOLECULE
M0C
   81    84     1     0     0
SMALL
bcc


@<TRIPOS>ATOM
      1 N1         -19.6160    16.0160   -27.1230 n          1 M0C      -0.457800
      2 N3         -18.0500    13.9320   -24.6970 ns         1 M0C      -0.554900
      3 C4         -20.6360    17.5290   -25.6460 cx         1 M0C      -0.125700
      4 C5         -19.4130    18.3660   -25.3980 cx         1 M0C      -0.076000
      5 C6         -18.5290    18.8540   -26.5210 c3         1 M0C      -0.065600
      6 C7         -19.5370    19.3700   -24.2750 c3         1 M0C      -0.065600
      7 C8         -20.8030    16.8580   -26.9840 c5         1 M0C       0.133000
      8 C10        -20.0260    15.5020   -29.4990 c3         1 M0C       0.042700
      9 C17        -18.0750    12.6690   -23.9970 c3         1 M0C       0.113700
     10 C20        -19.2800     9.7620   -20.8490 cy         1 M0C       0.106000
     11 C21        -20.7800    10.0080   -21.1100 cy         1 M0C      -0.120400
     12 C22        -20.4080    11.3970   -21.6660 cy         1 M0C       0.106000
     13 C24        -17.4170    11.4050   -26.0880 c5         1 M0C      -0.156700
     14 C26        -18.5340     9.9010   -27.6020 c5         1 M0C       0.101000
     15 C1         -19.1190    14.4950   -25.2760 c          1 M0C       0.672100
     16 C2         -18.8660    15.8710   -25.8870 c5         1 M0C       0.056700
     17 C3         -19.4420    16.9260   -24.9660 cx         1 M0C      -0.129700
     18 C9         -19.2000    15.3640   -28.2200 c          1 M0C       0.665100
     19 C11        -20.7450    14.1890   -29.9130 c3         1 M0C      -0.046000
     20 C12        -19.7840    13.0470   -30.2460 c3         1 M0C      -0.090767
     21 C14        -21.6690    13.7630   -28.7710 c3         1 M0C      -0.090767
     22 N2         -19.1340    16.0070   -30.5260 ns         1 M0C      -0.542900
     23 C16        -18.3410    17.5240   -32.2590 c3         1 M0C       0.584900
     24 F1         -17.2110    16.8180   -32.1930 f          1 M0C      -0.223300
     25 F2         -18.0290    18.8090   -32.1150 f          1 M0C      -0.223300
     26 F3         -18.8530    17.3620   -33.4800 f          1 M0C      -0.223300
     27 O2         -20.3630    17.8400   -31.0900 o          1 M0C      -0.551100
     28 O3         -18.1740    14.6940   -28.2210 o          1 M0C      -0.617100
     29 C18        -17.8020    12.9110   -22.5030 c3         1 M0C       0.059100
     30 O4         -18.7650    13.8200   -22.0440 oh         1 M0C      -0.584800
     31 C19        -17.8130    11.5860   -21.7400 c          1 M0C       0.641100
     32 N4         -19.0020    11.0580   -21.4480 nj         1 M0C      -0.489800
     33 O5         -16.7660    11.0210   -21.4400 o          1 M0C      -0.602100
     34 C23        -17.0900    11.6880   -24.6300 c3         1 M0C      -0.075400
     35 C25        -18.7640    10.7240   -26.3340 c5         1 M0C      -0.094400
     36 N5         -17.1140     9.6300   -27.5400 ns         1 M0C      -0.582900
     37 C27        -16.4210    10.4530   -26.7360 c          1 M0C       0.706500
     38 O6         -15.2130    10.4490   -26.5680 o          1 M0C      -0.627500
     39 H1         -17.1610    14.4070   -24.7630 hn         1 M0C       0.318500
     40 H2         -21.5420    17.7510   -25.0960 hc         1 M0C       0.102700
     41 H3         -17.5260    19.0660   -26.1450 hc         1 M0C       0.041867
     42 H4         -18.4260    18.1530   -27.3460 hc         1 M0C       0.041867
     43 H5         -18.9250    19.7840   -26.9330 hc         1 M0C       0.041867
     44 H6         -20.1750    19.0060   -23.4680 hc         1 M0C       0.041867
     45 H7         -18.5580    19.5960   -23.8470 hc         1 M0C       0.041867
     46 H8         -19.9650    20.3060   -24.6390 hc         1 M0C       0.041867
     47 H9         -20.8670    17.5800   -27.8010 h1         1 M0C       0.062200
     48 H10        -21.7170    16.2600   -26.9910 h1         1 M0C       0.062200
     49 H11        -20.8030    16.2520   -29.3710 h1         1 M0C       0.089700
     50 H12        -22.3050    15.2990   -30.9610 hc         1 M0C       0.042144
     51 H13        -20.9850    14.7670   -32.0100 hc         1 M0C       0.042144
     52 H14        -22.1690    13.6050   -31.4290 hc         1 M0C       0.042144
     53 H15        -19.0870    12.2750   -24.1020 h1         1 M0C       0.089700
     54 H16        -18.8350     8.9250   -21.3900 h1         1 M0C       0.060200
     55 H17        -18.9930     9.6940   -19.7980 h1         1 M0C       0.060200
     56 H18        -21.4070    10.0220   -20.2230 hc         1 M0C       0.061700
     57 H19        -21.2180     9.3360   -21.8450 hc         1 M0C       0.061700
     58 H20        -20.7530    12.2360   -21.0650 h1         1 M0C       0.060200
     59 H21        -20.6760    11.5760   -22.7080 h1         1 M0C       0.060200
     60 H22        -17.3690    12.3360   -26.6670 hc         1 M0C       0.092700
     61 H23        -18.7900    10.4680   -28.5020 h1         1 M0C       0.043200
     62 H24        -19.1120     8.9770   -27.6140 h1         1 M0C       0.043200
     63 H25        -17.7990    16.0250   -26.0750 h1         1 M0C       0.086700
     64 H26        -19.4430    16.7050   -23.9050 hc         1 M0C       0.108700
     65 H27        -19.2180    12.7100   -29.3790 hc         1 M0C       0.042144
     66 H28        -20.3600    12.1950   -30.6130 hc         1 M0C       0.042144
     67 H29        -19.0750    13.3140   -31.0320 hc         1 M0C       0.042144
     68 H30        -21.1210    13.5030   -27.8640 hc         1 M0C       0.042144
     69 H31        -22.3840    14.5500   -28.5220 hc         1 M0C       0.042144
     70 H32        -22.2400    12.8820   -29.0670 hc         1 M0C       0.042144
     71 H33        -18.2760    15.5020   -30.6870 hn         1 M0C       0.351500
     72 H34        -16.7840    13.3110   -22.3980 h1         1 M0C       0.062700
     73 H35        -18.5240    14.1090   -21.1570 ho         1 M0C       0.413000
     74 H36        -17.1110    10.7450   -24.0800 hc         1 M0C       0.070700
     75 H37        -16.0730    12.0810   -24.5430 hc         1 M0C       0.070700
     76 H38        -19.5890    11.4260   -26.4430 hc         1 M0C       0.061200
     77 H39        -18.9990    10.0590   -25.4980 hc         1 M0C       0.061200
     78 H40        -16.6570     8.9830   -28.1640 hn         1 M0C       0.326500
     79 O1         -20.2350    13.9990   -25.2990 o          1 M0C      -0.607100
     80 C13        -21.5960    14.4910   -31.1490 c3         1 M0C      -0.090767
     81 C15        -19.3890    17.1250   -31.2050 c          1 M0C       0.616100
@<TRIPOS>BOND
     1     1     7 1   
     2     1    16 1   
     3     1    18 1   
     4     2     9 1   
     5     2    15 1   
     6     2    39 1   
     7     3     4 1   
     8     3     7 1   
     9     3    17 1   
    10     3    40 1   
    11     4     5 1   
    12     4     6 1   
    13     4    17 1   
    14     5    41 1   
    15     5    42 1   
    16     5    43 1   
    17     6    44 1   
    18     6    45 1   
    19     6    46 1   
    20     7    47 1   
    21     7    48 1   
    22     8    18 1   
    23     8    19 1   
    24     8    22 1   
    25     8    49 1   
    26     9    29 1   
    27     9    34 1   
    28     9    53 1   
    29    10    11 1   
    30    10    32 1   
    31    10    54 1   
    32    10    55 1   
    33    11    12 1   
    34    11    56 1   
    35    11    57 1   
    36    12    32 1   
    37    12    58 1   
    38    12    59 1   
    39    13    34 1   
    40    13    35 1   
    41    13    37 1   
    42    13    60 1   
    43    14    35 1   
    44    14    36 1   
    45    14    61 1   
    46    14    62 1   
    47    15    16 1   
    48    15    79 2   
    49    16    17 1   
    50    16    63 1   
    51    17    64 1   
    52    18    28 2   
    53    19    20 1   
    54    19    21 1   
    55    19    80 1   
    56    20    65 1   
    57    20    66 1   
    58    20    67 1   
    59    21    68 1   
    60    21    69 1   
    61    21    70 1   
    62    22    71 1   
    63    22    81 1   
    64    23    24 1   
    65    23    25 1   
    66    23    26 1   
    67    23    81 1   
    68    27    81 2   
    69    29    30 1   
    70    29    31 1   
    71    29    72 1   
    72    30    73 1   
    73    31    32 1   
    74    31    33 2   
    75    34    74 1   
    76    34    75 1   
    77    35    76 1   
    78    35    77 1   
    79    36    37 1   
    80    36    78 1   
    81    37    38 2   
    82    50    80 1   
    83    51    80 1   
    84    52    80 1   
@<TRIPOS>SUBSTRUCTURE
     1 M0C         1 TEMP              0 ****  ****    0 ROOT
