@<TRIPOS>MOLECULE
M0C
   81    84     1     0     0
SMALL
No Charge or Current Charge


@<TRIPOS>ATOM
      1 N1         -19.7600    16.2030   -27.1110 n          1 M0C      -0.390800
      2 N3         -18.3900    14.0670   -24.4300 ns         1 M0C      -0.487900
      3 C4         -20.4510    17.9470   -25.6410 cx         1 M0C      -0.125700
      4 C5         -19.0970    18.4220   -25.1340 cx         1 M0C      -0.076000
      5 C6         -17.9260    18.7420   -26.0800 c3         1 M0C      -0.065600
      6 C7         -19.0770    19.3960   -23.9570 c3         1 M0C      -0.065600
      7 C8         -20.5300    17.4730   -27.0990 c5         1 M0C       0.133000
      8 C10        -20.1760    15.7540   -29.6140 c3         1 M0C       0.042700
      9 C17        -18.2900    12.7260   -23.8340 c3         1 M0C       0.113700
     10 C20        -19.8980    10.2100   -20.5980 cy         1 M0C       0.106000
     11 C21        -20.0550     8.8360   -21.3250 cy         1 M0C      -0.120400
     12 C22        -18.9980     9.3800   -22.3380 cy         1 M0C       0.106000
     13 C24        -17.2690    11.7470   -26.0470 c5         1 M0C      -0.156700
     14 C26        -18.0440    10.5030   -27.9490 c5         1 M0C       0.101000
     15 C1         -19.3830    14.4690   -25.3000 c          1 M0C       0.605100
     16 C2         -19.0640    15.9030   -25.8230 c5         1 M0C       0.056700
     17 C3         -19.5710    17.0010   -24.8690 cx         1 M0C      -0.129700
     18 C9         -19.3220    15.6000   -28.3100 c          1 M0C       0.598100
     19 C11        -21.3560    14.7090   -29.7320 c3         1 M0C      -0.046000
     20 C12        -20.8220    13.2530   -29.6070 c3         1 M0C      -0.090767
     21 C14        -22.4210    14.9390   -28.6260 c3         1 M0C      -0.090767
     22 N2         -19.2560    15.6770   -30.7770 ns         1 M0C      -0.475900
     23 C16        -18.2030    16.2130   -32.9600 c3         1 M0C       0.221000
     24 F1         -16.9500    16.3100   -32.4560 f          1 M0C      -0.102000
     25 F2         -18.2810    17.0650   -34.0110 f          1 M0C      -0.102000
     26 F3         -18.3470    14.9580   -33.4490 f          1 M0C      -0.102000
     27 O2         -20.0800    17.4410   -31.9630 o          1 M0C      -0.551100
     28 O3         -18.3000    14.9170   -28.3080 o          1 M0C      -0.617100
     29 C18        -18.1480    12.8060   -22.2800 c3         1 M0C       0.082300
     30 O4         -19.1320    13.7240   -21.7280 oh         1 M0C      -0.647000
     31 C19        -18.2410    11.3970   -21.6120 c          1 M0C       0.574100
     32 N4         -19.4800    10.7450   -21.9380 nj         1 M0C      -0.422800
     33 O5         -17.2860    11.0440   -20.9200 o          1 M0C      -0.602100
     34 C23        -17.1360    11.9340   -24.5070 c3         1 M0C      -0.075400
     35 C25        -18.4830    10.8940   -26.5120 c5         1 M0C      -0.094400
     36 N5         -16.6100    10.3120   -27.7440 ns         1 M0C      -0.515900
     37 C27        -16.0860    11.0110   -26.6910 c          1 M0C       0.564000
     38 O6         -14.9540    10.8380   -26.2710 o          1 M0C      -0.552000
     39 H1         -17.6600    14.7390   -24.2250 hn         1 M0C       0.318500
     40 H2         -21.3440    18.3430   -25.1620 hc         1 M0C       0.102700
     41 H3         -16.9680    18.6460   -25.5540 hc         1 M0C       0.041867
     42 H4         -17.8730    18.0930   -26.9590 hc         1 M0C       0.041867
     43 H5         -17.9980    19.7720   -26.4480 hc         1 M0C       0.041867
     44 H6         -19.8990    19.2020   -23.2570 hc         1 M0C       0.041867
     45 H7         -18.1390    19.3150   -23.3940 hc         1 M0C       0.041867
     46 H8         -19.1770    20.4330   -24.3010 hc         1 M0C       0.041867
     47 H9         -20.1090    18.2060   -27.7990 h1         1 M0C       0.062200
     48 H10        -21.5700    17.3000   -27.3980 h1         1 M0C       0.062200
     49 H11        -20.6130    16.7590   -29.5990 h1         1 M0C       0.089700
     50 H12        -22.4260    15.8780   -31.2580 hc         1 M0C       0.042144
     51 H13        -21.4140    14.5850   -31.9380 hc         1 M0C       0.042144
     52 H14        -22.9470    14.1870   -31.1610 hc         1 M0C       0.042144
     53 H15        -19.2230    12.1880   -24.0510 h1         1 M0C       0.089700
     54 H16        -19.1570    10.2000   -19.7900 h1         1 M0C       0.060200
     55 H17        -20.8430    10.6330   -20.2390 h1         1 M0C       0.060200
     56 H18        -21.0470     8.6680   -21.7580 hc         1 M0C       0.061700
     57 H19        -19.7590     7.9530   -20.7510 hc         1 M0C       0.061700
     58 H20        -19.2150     9.1340   -23.3840 h1         1 M0C       0.060200
     59 H21        -17.9650     9.1070   -22.0910 h1         1 M0C       0.060200
     60 H22        -17.3310    12.7230   -26.5410 hc         1 M0C       0.092700
     61 H23        -18.2410    11.3130   -28.6640 h1         1 M0C       0.043200
     62 H24        -18.5510     9.5950   -28.3020 h1         1 M0C       0.043200
     63 H25        -17.9750    15.9600   -25.9560 h1         1 M0C       0.086700
     64 H26        -19.8520    16.7400   -23.8500 hc         1 M0C       0.108700
     65 H27        -20.3820    13.0700   -28.6190 hc         1 M0C       0.042144
     66 H28        -21.6330    12.5270   -29.7420 hc         1 M0C       0.042144
     67 H29        -20.0580    13.0410   -30.3640 hc         1 M0C       0.042144
     68 H30        -22.0000    14.8040   -27.6240 hc         1 M0C       0.042144
     69 H31        -22.8450    15.9470   -28.6930 hc         1 M0C       0.042144
     70 H32        -23.2480    14.2260   -28.7280 hc         1 M0C       0.042144
     71 H33        -18.5290    14.9680   -30.7570 hn         1 M0C       0.351500
     72 H34        -17.1430    13.1900   -22.0610 h1         1 M0C       0.062700
     73 H35        -20.0200    13.3400   -21.9030 ho         1 M0C       0.452000
     74 H36        -17.0520    10.9460   -24.0390 hc         1 M0C       0.070700
     75 H37        -16.1920    12.4490   -24.2870 hc         1 M0C       0.070700
     76 H38        -19.4330    11.4390   -26.5000 hc         1 M0C       0.061200
     77 H39        -18.6070    10.0010   -25.8880 hc         1 M0C       0.061200
     78 H40        -16.0110     9.6780   -28.2600 hn         1 M0C       0.326500
     79 O1         -20.3560    13.7760   -25.5750 o          1 M0C      -0.607100
     80 C13        -22.0750    14.8500   -31.1040 c3         1 M0C      -0.090767
     81 C15        -19.2730    16.5210   -31.8750 c          1 M0C       0.549100
@<TRIPOS>BOND
     1     1     7 1   
     2     1    16 1   
     3     1    18 1   
     4     2     9 1   
     5     2    15 1   
     6     2    39 1   
     7     3     4 1   
     8     3     7 1   
     9     3    17 1   
    10     3    40 1   
    11     4     5 1   
    12     4     6 1   
    13     4    17 1   
    14     5    41 1   
    15     5    42 1   
    16     5    43 1   
    17     6    44 1   
    18     6    45 1   
    19     6    46 1   
    20     7    47 1   
    21     7    48 1   
    22     8    18 1   
    23     8    19 1   
    24     8    22 1   
    25     8    49 1   
    26     9    29 1   
    27     9    34 1   
    28     9    53 1   
    29    10    11 1   
    30    10    32 1   
    31    10    54 1   
    32    10    55 1   
    33    11    12 1   
    34    11    56 1   
    35    11    57 1   
    36    12    32 1   
    37    12    58 1   
    38    12    59 1   
    39    13    34 1   
    40    13    35 1   
    41    13    37 1   
    42    13    60 1   
    43    14    35 1   
    44    14    36 1   
    45    14    61 1   
    46    14    62 1   
    47    15    16 1   
    48    15    79 2   
    49    16    17 1   
    50    16    63 1   
    51    17    64 1   
    52    18    28 2   
    53    19    20 1   
    54    19    21 1   
    55    19    80 1   
    56    20    65 1   
    57    20    66 1   
    58    20    67 1   
    59    21    68 1   
    60    21    69 1   
    61    21    70 1   
    62    22    71 1   
    63    22    81 1   
    64    23    24 1   
    65    23    25 1   
    66    23    26 1   
    67    23    81 1   
    68    27    81 2   
    69    29    30 1   
    70    29    31 1   
    71    29    72 1   
    72    30    73 1   
    73    31    32 1   
    74    31    33 2   
    75    34    74 1   
    76    34    75 1   
    77    35    76 1   
    78    35    77 1   
    79    36    37 1   
    80    36    78 1   
    81    37    38 2   
    82    50    80 1   
    83    51    80 1   
    84    52    80 1   
@<TRIPOS>SUBSTRUCTURE
     1 M0C         1 TEMP              0 ****  ****    0 ROOT
