@<TRIPOS>MOLECULE
M0D
   40    43     1     0     0
SMALL
No Charge or Current Charge


@<TRIPOS>ATOM
      1 N1         -32.5590   -16.5250   -18.3450 n3         1 M0D      -0.721600
      2 C4         -29.8790   -17.6370   -17.7500 c6         1 M0D      -0.042500
      3 C5         -30.7500   -16.9370   -16.6730 c6         1 M0D      -0.061400
      4 C6         -32.2530   -17.1500   -17.0110 c6         1 M0D       0.194500
      5 C7         -32.6140   -18.6750   -16.8990 c6         1 M0D      -0.031200
      6 C8         -31.5060   -19.5780   -17.4050 cc         1 M0D      -0.145400
      7 C10        -30.2110   -21.3250   -18.0270 ca         1 M0D      -0.042200
      8 C13        -32.1100   -23.3200   -17.5950 ca         1 M0D      -0.141000
      9 C15        -31.4590   -21.0010   -17.5710 ca         1 M0D      -0.086800
     10 N          -35.6940   -15.8490   -20.4030 nt         1 M0D      -0.618000
     11 C          -34.4920   -15.5520   -19.8540 c          1 M0D       0.597100
     12 O          -33.8550   -14.5980   -20.2790 o          1 M0D      -0.583100
     13 C1         -34.0210   -16.4860   -18.6910 c3         1 M0D       0.100800
     14 C11        -29.8530   -22.6550   -18.2890 ca         1 M0D      -0.127000
     15 C12        -30.8200   -23.6600   -18.0680 ca         1 M0D      -0.095000
     16 C14        -32.4420   -21.9720   -17.3400 ca         1 M0D      -0.065000
     17 C2         -31.6960   -17.0530   -19.4550 c6         1 M0D       0.177800
     18 C3         -30.1710   -16.9630   -19.1230 c6         1 M0D       0.174300
     19 C9         -30.2500   -19.1090   -17.7780 cd         1 M0D      -0.049300
     20 N2         -29.4310   -20.1910   -18.1700 na         1 M0D      -0.208700
     21 O1         -29.3720   -17.5460   -20.1690 oh         1 M0D      -0.654000
     22 H2         -28.8180   -17.5130   -17.4940 hc         1 M0D       0.053700
     23 H3         -30.5260   -17.3440   -15.6780 hc         1 M0D       0.058200
     24 H4         -30.5210   -15.8630   -16.6300 hc         1 M0D       0.058200
     25 H5         -32.8410   -16.6230   -16.2430 h1         1 M0D       0.059700
     26 H6         -33.5610   -18.8970   -17.4050 hc         1 M0D       0.047200
     27 H7         -32.7940   -18.9040   -15.8410 hc         1 M0D       0.047200
     28 H8         -32.8490   -24.1000   -17.4270 ha         1 M0D       0.109000
     29 H9         -36.0460   -15.2770   -21.1570 hn         1 M0D       0.312000
     30 H10        -36.2300   -16.6330   -20.0600 hn         1 M0D       0.312000
     31 H11        -34.6000   -16.1780   -17.8110 h1         1 M0D       0.044200
     32 H12        -34.3640   -17.4960   -18.9500 h1         1 M0D       0.044200
     33 H13        -28.8600   -22.9080   -18.6520 ha         1 M0D       0.112000
     34 H14        -30.5720   -24.7020   -18.2620 ha         1 M0D       0.109000
     35 H15        -33.4290   -21.6960   -16.9770 ha         1 M0D       0.110000
     36 H16        -31.8760   -16.4850   -20.3790 h1         1 M0D       0.054200
     37 H17        -31.9570   -18.0990   -19.6780 h1         1 M0D       0.054200
     38 H18        -29.9210   -15.8950   -19.0330 h1         1 M0D       0.051700
     39 H19        -28.4750   -20.1430   -18.5040 hn         1 M0D       0.348000
     40 H20        -28.4380   -17.3200   -19.9690 ho         1 M0D       0.439000
@<TRIPOS>BOND
     1     1     4 1   
     2     1    13 1   
     3     1    17 1   
     4     2     3 1   
     5     2    18 1   
     6     2    19 1   
     7     2    22 1   
     8     3     4 1   
     9     3    23 1   
    10     3    24 1   
    11     4     5 1   
    12     4    25 1   
    13     5     6 1   
    14     5    26 1   
    15     5    27 1   
    16     6     9 1   
    17     6    19 2   
    18     7     9 ar  
    19     7    14 ar  
    20     7    20 1   
    21     8    15 ar  
    22     8    16 ar  
    23     8    28 1   
    24     9    16 ar  
    25    10    11 1   
    26    10    29 1   
    27    10    30 1   
    28    11    12 2   
    29    11    13 1   
    30    13    31 1   
    31    13    32 1   
    32    14    15 ar  
    33    14    33 1   
    34    15    34 1   
    35    16    35 1   
    36    17    18 1   
    37    17    36 1   
    38    17    37 1   
    39    18    21 1   
    40    18    38 1   
    41    19    20 1   
    42    20    39 1   
    43    21    40 1   
@<TRIPOS>SUBSTRUCTURE
     1 M0D         1 TEMP              0 ****  ****    0 ROOT
