@<TRIPOS>MOLECULE
M0D
   40    43     1     0     0
SMALL
bcc


@<TRIPOS>ATOM
      1 N1         -32.5700   -16.6120   -18.3700 n3         1 M0D      -0.721600
      2 C4         -29.9540   -17.6370   -17.7850 c6         1 M0D      -0.042500
      3 C5         -30.8110   -16.9230   -16.7380 c6         1 M0D      -0.061400
      4 C6         -32.2840   -17.1680   -17.0500 c6         1 M0D       0.194500
      5 C7         -32.6300   -18.6600   -16.8550 c6         1 M0D      -0.031200
      6 C8         -31.5410   -19.5500   -17.3550 cc         1 M0D      -0.145400
      7 C10        -30.2240   -21.2890   -18.0300 ca         1 M0D      -0.042200
      8 C13        -32.0440   -23.3050   -17.5490 ca         1 M0D      -0.159000
      9 C15        -31.5030   -20.9700   -17.5140 ca         1 M0D      -0.086800
     10 N          -35.4220   -15.7760   -20.4250 nt         1 M0D      -0.685000
     11 C          -34.3340   -15.5100   -19.6890 c          1 M0D       0.664100
     12 O          -33.7150   -14.4610   -19.7650 o          1 M0D      -0.583100
     13 C1         -33.9670   -16.6150   -18.7040 c3         1 M0D       0.100800
     14 C11        -29.8450   -22.6000   -18.3060 ca         1 M0D      -0.145000
     15 C12        -30.7700   -23.6000   -18.0590 ca         1 M0D      -0.113000
     16 C14        -32.4170   -22.0020   -17.2750 ca         1 M0D      -0.083000
     17 C2         -31.7550   -17.1250   -19.4560 c6         1 M0D       0.177800
     18 C3         -30.2690   -17.0080   -19.1510 c6         1 M0D       0.151100
     19 C9         -30.3250   -19.0780   -17.7600 cd         1 M0D      -0.049300
     20 N2         -29.5350   -20.1170   -18.1690 na         1 M0D      -0.158400
     21 O1         -29.5810   -17.6320   -20.2090 oh         1 M0D      -0.591800
     22 H2         -28.8900   -17.5020   -17.5610 hc         1 M0D       0.053700
     23 H3         -30.5740   -17.2890   -15.7370 hc         1 M0D       0.058200
     24 H4         -30.6060   -15.8500   -16.7500 hc         1 M0D       0.058200
     25 H5         -32.8890   -16.5940   -16.3430 h1         1 M0D       0.059700
     26 H6         -33.5830   -18.8950   -17.3410 hc         1 M0D       0.047200
     27 H7         -32.8020   -18.8360   -15.7870 hc         1 M0D       0.047200
     28 H8         -32.7410   -24.1130   -17.3680 ha         1 M0D       0.127000
     29 H9         -35.7920   -15.0890   -21.0610 hn         1 M0D       0.312000
     30 H10        -35.8930   -16.6630   -20.3790 hn         1 M0D       0.312000
     31 H11        -34.5510   -16.4230   -17.7980 h1         1 M0D       0.044200
     32 H12        -34.3200   -17.5840   -19.0920 h1         1 M0D       0.044200
     33 H13        -28.8640   -22.8340   -18.7000 ha         1 M0D       0.130000
     34 H14        -30.5040   -24.6290   -18.2630 ha         1 M0D       0.127000
     35 H15        -33.4020   -21.7830   -16.8810 ha         1 M0D       0.128000
     36 H16        -31.9680   -16.5380   -20.3540 h1         1 M0D       0.054200
     37 H17        -31.9930   -18.1730   -19.7000 h1         1 M0D       0.054200
     38 H18        -30.0110   -15.9410   -19.0870 h1         1 M0D       0.051700
     39 H19        -28.5970   -20.0290   -18.5230 hn         1 M0D       0.297700
     40 H20        -28.6410   -17.4550   -20.1050 ho         1 M0D       0.400000
@<TRIPOS>BOND
     1     1     4 1   
     2     1    13 1   
     3     1    17 1   
     4     2     3 1   
     5     2    18 1   
     6     2    19 1   
     7     2    22 1   
     8     3     4 1   
     9     3    23 1   
    10     3    24 1   
    11     4     5 1   
    12     4    25 1   
    13     5     6 1   
    14     5    26 1   
    15     5    27 1   
    16     6     9 1   
    17     6    19 2   
    18     7     9 ar  
    19     7    14 ar  
    20     7    20 1   
    21     8    15 ar  
    22     8    16 ar  
    23     8    28 1   
    24     9    16 ar  
    25    10    11 1   
    26    10    29 1   
    27    10    30 1   
    28    11    12 2   
    29    11    13 1   
    30    13    31 1   
    31    13    32 1   
    32    14    15 ar  
    33    14    33 1   
    34    15    34 1   
    35    16    35 1   
    36    17    18 1   
    37    17    36 1   
    38    17    37 1   
    39    18    21 1   
    40    18    38 1   
    41    19    20 1   
    42    20    39 1   
    43    21    40 1   
@<TRIPOS>SUBSTRUCTURE
     1 M0D         1 TEMP              0 ****  ****    0 ROOT
