@<TRIPOS>MOLECULE
M0F
   31    33     1     0     0
SMALL
abcg2


@<TRIPOS>ATOM
      1 C6         116.8260   203.4950    -0.5740 ca         1 M0F      -0.121300
      2 C5         118.1350   203.9700     0.0090 c3         1 M0F       0.046100
      3 C4         117.9600   205.0830     0.9890 cc         1 M0F      -0.087400
      4 C2         116.5190   204.0730     2.9420 ca         1 M0F      -0.003000
      5 O2         112.4070   202.9760    -2.9200 o          1 M0F      -0.720000
      6 C          116.0970   205.7090     4.6860 ca         1 M0F       0.154100
      7 O          115.5080   205.9450     5.8760 oh         1 M0F      -0.538100
      8 C1         115.9560   204.4130     4.1570 ca         1 M0F      -0.170000
      9 C10        113.0640   202.1340    -2.2780 c          1 M0F       0.713600
     10 C11        114.8210   203.9260    -1.8540 ca         1 M0F      -0.088500
     11 C12        116.0210   204.3600    -1.3130 ca         1 M0F      -0.135500
     12 C13        118.4360   206.3400     0.8990 cd         1 M0F      -0.105900
     13 C14        117.3620   206.3120     2.7890 ca         1 M0F       0.096100
     14 C15        116.8110   206.6860     4.0040 ca         1 M0F      -0.224000
     15 C3         117.2390   205.0380     2.2370 ca         1 M0F      -0.135800
     16 C7         116.3910   202.1870    -0.3930 ca         1 M0F      -0.135500
     17 C8         115.1870   201.7540    -0.9350 ca         1 M0F      -0.088500
     18 C9         114.3820   202.6140    -1.6760 ca         1 M0F      -0.127600
     19 O1         112.7630   200.9410    -2.0770 o          1 M0F      -0.720000
     20 O3         118.0900   207.1040     1.9770 os         1 M0F      -0.184200
     21 H1         118.6370   203.1310     0.4960 hc         1 M0F       0.041200
     22 H2         118.7990   204.3030    -0.7940 hc         1 M0F       0.041200
     23 H3         116.3970   203.0710     2.5530 ha         1 M0F       0.137000
     24 H4         115.6580   206.8560     6.1540 ho         1 M0F       0.458000
     25 H5         115.3930   203.6790     4.7190 ha         1 M0F       0.127000
     26 H6         114.2130   204.6140    -2.4270 ha         1 M0F       0.126500
     27 H7         116.3380   205.3860    -1.4640 ha         1 M0F       0.083500
     28 H8         119.0290   206.8300     0.1420 h4         1 M0F       0.231000
     29 H9         116.9310   207.6880     4.4010 ha         1 M0F       0.120000
     30 H10        116.9990   201.4960     0.1800 ha         1 M0F       0.083500
     31 H11        114.8710   200.7310    -0.7800 ha         1 M0F       0.126500
@<TRIPOS>BOND
     1     1     2 1   
     2     1    11 ar  
     3     1    16 ar  
     4     2     3 1   
     5     2    21 1   
     6     2    22 1   
     7     3    12 2   
     8     3    15 1   
     9     4     8 ar  
    10     4    15 ar  
    11     4    23 1   
    12     5     9 1   
    13     6     7 1   
    14     6     8 ar  
    15     6    14 ar  
    16     7    24 1   
    17     8    25 1   
    18     9    18 1   
    19     9    19 1   
    20    10    11 ar  
    21    10    18 ar  
    22    10    26 1   
    23    11    27 1   
    24    12    20 1   
    25    12    28 1   
    26    13    14 ar  
    27    13    15 ar  
    28    13    20 1   
    29    14    29 1   
    30    16    17 ar  
    31    16    30 1   
    32    17    18 ar  
    33    17    31 1   
@<TRIPOS>SUBSTRUCTURE
     1 M0F         1 TEMP              0 ****  ****    0 ROOT
