@<TRIPOS>MOLECULE
M0F
   31    33     1     0     0
SMALL
No Charge or Current Charge


@<TRIPOS>ATOM
      1 C6         116.6650   203.5000    -0.6390 ca         1 M0F      -0.121300
      2 C5         117.8740   203.9530     0.1700 c3         1 M0F       0.046100
      3 C4         117.5530   205.1070     1.0820 cc         1 M0F      -0.087400
      4 C2         117.1830   203.9860     3.3960 ca         1 M0F      -0.003000
      5 O2         113.0330   202.6630    -4.0710 o          1 M0F      -0.720000
      6 C          116.6050   205.5940     5.1630 ca         1 M0F       0.154100
      7 O          116.2910   205.8370     6.4650 oh         1 M0F      -0.538100
      8 C1         116.8560   204.2670     4.7410 ca         1 M0F      -0.170000
      9 C10        113.1910   202.2100    -2.9460 c          1 M0F       0.713600
     10 C11        115.3290   203.5830    -2.6810 ca         1 M0F      -0.088500
     11 C12        116.4470   203.9980    -1.9360 ca         1 M0F      -0.135500
     12 C13        117.4520   206.4570     0.7600 cd         1 M0F      -0.105900
     13 C14        117.0030   206.3500     2.9250 ca         1 M0F       0.096100
     14 C15        116.6760   206.6620     4.2470 ca         1 M0F      -0.224000
     15 C3         117.2510   205.0650     2.5030 ca         1 M0F      -0.135800
     16 C7         115.7480   202.5840    -0.0930 ca         1 M0F      -0.135500
     17 C8         114.6290   202.1670    -0.8340 ca         1 M0F      -0.088500
     18 C9         114.4020   202.6600    -2.1410 ca         1 M0F      -0.127600
     19 O1         112.4160   201.4090    -2.4400 o          1 M0F      -0.720000
     20 O3         117.1260   207.1970     1.8710 os         1 M0F      -0.184200
     21 H1         118.2660   203.1140     0.7580 hc         1 M0F       0.041200
     22 H2         118.6890   204.2430    -0.5040 hc         1 M0F       0.041200
     23 H3         117.3750   202.9670     3.0670 ha         1 M0F       0.137000
     24 H4         116.1510   206.8030     6.5710 ho         1 M0F       0.458000
     25 H5         116.7950   203.4540     5.4600 ha         1 M0F       0.127000
     26 H6         115.1850   203.9840    -3.6820 ha         1 M0F       0.126500
     27 H7         117.1440   204.7100    -2.3710 ha         1 M0F       0.083500
     28 H8         117.5800   206.9780    -0.1840 h4         1 M0F       0.231000
     29 H9         116.4870   207.6900     4.5450 ha         1 M0F       0.120000
     30 H10        115.9010   202.1940     0.9100 ha         1 M0F       0.083500
     31 H11        113.9360   201.4580    -0.3870 ha         1 M0F       0.126500
@<TRIPOS>BOND
     1     1     2 1   
     2     1    11 ar  
     3     1    16 ar  
     4     2     3 1   
     5     2    21 1   
     6     2    22 1   
     7     3    12 2   
     8     3    15 1   
     9     4     8 ar  
    10     4    15 ar  
    11     4    23 1   
    12     5     9 1   
    13     6     7 1   
    14     6     8 ar  
    15     6    14 ar  
    16     7    24 1   
    17     8    25 1   
    18     9    18 1   
    19     9    19 1   
    20    10    11 ar  
    21    10    18 ar  
    22    10    26 1   
    23    11    27 1   
    24    12    20 1   
    25    12    28 1   
    26    13    14 ar  
    27    13    15 ar  
    28    13    20 1   
    29    14    29 1   
    30    16    17 ar  
    31    16    30 1   
    32    17    18 ar  
    33    17    31 1   
@<TRIPOS>SUBSTRUCTURE
     1 M0F         1 TEMP              0 ****  ****    0 ROOT
