@<TRIPOS>MOLECULE
M0G
   38    39     1     0     0
SMALL
No Charge or Current Charge


@<TRIPOS>ATOM
      1 N1           7.0520    -0.3280    17.3350 nb         1 M0G      -0.656000
      2 C4           7.5210     0.0460    19.6980 ca         1 M0G      -0.098000
      3 C5           7.7450    -0.6010    18.4640 ca         1 M0G       0.322900
      4 C6           6.0870     0.6130    17.4060 ca         1 M0G       0.328900
      5 C7           5.7740     1.2940    18.5930 ca         1 M0G      -0.159000
      6 C8           6.4880     1.0140    19.7730 ca         1 M0G      -0.022300
      7 C10         11.3700    -0.1070    22.5780 ca         1 M0G      -0.116300
      8 C13         14.1160     0.4280    22.1010 ca         1 M0G      -0.091000
      9 C15         11.9950    -0.5190    21.3770 ca         1 M0G      -0.095000
     10 C14         13.3540    -0.2550    21.1430 ca         1 M0G       0.121000
     11 C12         13.5130     0.8490    23.2960 ca         1 M0G      -0.103000
     12 C11         12.1520     0.5870    23.5360 ca         1 M0G      -0.077000
     13 C2           9.8680    -0.4150    22.7760 c3         1 M0G       0.152300
     14 O            9.7090    -1.8400    22.5750 oh         1 M0G      -0.675000
     15 C1           9.3410    -0.1060    24.2130 c3         1 M0G      -0.090400
     16 C            7.8660    -0.4960    24.4790 c3         1 M0G      -0.088100
     17 C3           9.0510     0.4250    21.7160 c          1 M0G       0.615100
     18 O1           9.0920     1.6530    21.6690 o          1 M0G      -0.589100
     19 N            8.3330    -0.3370    20.8040 ns         1 M0G      -0.145000
     20 C9           6.0800     1.7180    21.0620 c3         1 M0G      -0.054800
     21 H1           8.5200    -1.3610    18.3740 h4         1 M0G       0.021100
     22 H2           5.5390     0.8180    16.4870 h4         1 M0G       0.021100
     23 H3           4.9720     2.0270    18.5890 ha         1 M0G       0.123000
     24 H4          15.1680     0.6320    21.9160 ha         1 M0G       0.133000
     25 H5          11.4270    -1.0510    20.6180 ha         1 M0G       0.134000
     26 H6          14.1010     1.3820    24.0410 ha         1 M0G       0.123000
     27 H7          11.7270     0.9370    24.4720 ha         1 M0G       0.129000
     28 H8          10.3450    -2.2840    23.1780 ho         1 M0G       0.463000
     29 H9           9.9680    -0.6250    24.9490 hc         1 M0G       0.057200
     30 H10          9.4430     0.9680    24.4120 hc         1 M0G       0.057200
     31 H11          7.5890    -0.2420    25.5090 hc         1 M0G       0.040700
     32 H12          7.1870     0.0400    23.8080 hc         1 M0G       0.040700
     33 H13          7.7080    -1.5730    24.3450 hc         1 M0G       0.040700
     34 H14          8.4470    -1.3360    20.9300 hn         1 M0G       0.179000
     35 H15          6.2140     1.0740    21.9370 hc         1 M0G       0.054367
     36 H16          6.6620     2.6340    21.2150 hc         1 M0G       0.054367
     37 H17          5.0220     2.0050    21.0400 hc         1 M0G       0.054367
     38 Cl          14.1020    -0.7820    19.6400 cl         1 M0G      -0.210000
@<TRIPOS>BOND
     1     1     3 ar  
     2     1     4 ar  
     3     2     3 ar  
     4     2     6 ar  
     5     2    19 1   
     6     3    21 1   
     7     4     5 ar  
     8     4    22 1   
     9     5     6 ar  
    10     5    23 1   
    11     6    20 1   
    12     7     9 ar  
    13     7    12 ar  
    14     7    13 1   
    15     8    10 ar  
    16     8    11 ar  
    17     8    24 1   
    18     9    10 ar  
    19     9    25 1   
    20    10    38 1   
    21    11    12 ar  
    22    11    26 1   
    23    12    27 1   
    24    13    14 1   
    25    13    15 1   
    26    13    17 1   
    27    14    28 1   
    28    15    16 1   
    29    15    29 1   
    30    15    30 1   
    31    16    31 1   
    32    16    32 1   
    33    16    33 1   
    34    17    18 2   
    35    17    19 1   
    36    19    34 1   
    37    20    35 1   
    38    20    36 1   
    39    20    37 1   
@<TRIPOS>SUBSTRUCTURE
     1 M0G         1 TEMP              0 ****  ****    0 ROOT
