@<TRIPOS>MOLECULE
M0G
   38    39     1     0     0
SMALL
abcg2


@<TRIPOS>ATOM
      1 N1           7.5720     0.4130    17.3230 nb         1 M0G      -0.656000
      2 C4           7.6720     0.1940    19.7140 ca         1 M0G      -0.098000
      3 C5           8.1580    -0.0390    18.4300 ca         1 M0G       0.322900
      4 C6           6.4600     1.1400    17.4790 ca         1 M0G       0.328900
      5 C7           5.9010     1.4150    18.7160 ca         1 M0G      -0.159000
      6 C8           6.4950     0.9320    19.8820 ca         1 M0G      -0.022300
      7 C10         11.2660    -0.1720    22.4960 ca         1 M0G      -0.116300
      8 C13         13.9520     0.3560    21.8640 ca         1 M0G      -0.091000
      9 C15         11.9850    -1.0500    21.6860 ca         1 M0G      -0.095000
     10 C14         13.3120    -0.7770    21.3860 ca         1 M0G       0.121000
     11 C12         13.2260     1.2340    22.6620 ca         1 M0G      -0.103000
     12 C11         11.8970     0.9770    22.9750 ca         1 M0G      -0.077000
     13 C2           9.7930    -0.4700    22.8010 c3         1 M0G       0.152300
     14 O            9.4980    -1.8440    22.5670 oh         1 M0G      -0.675000
     15 C1           9.3990    -0.0740    24.2330 c3         1 M0G      -0.090400
     16 C            7.9500    -0.4010    24.5810 c3         1 M0G      -0.088100
     17 C3           8.9640     0.3540    21.7880 c          1 M0G       0.615100
     18 O1           8.8980     1.5720    21.8790 o          1 M0G      -0.589100
     19 N            8.3740    -0.3670    20.8110 ns         1 M0G      -0.145000
     20 C9           5.8770     1.1710    21.2240 c3         1 M0G      -0.054800
     21 H1           9.0650    -0.6240    18.3090 h4         1 M0G       0.021100
     22 H2           5.9930     1.5120    16.5730 h4         1 M0G       0.021100
     23 H3           4.9860     1.9920    18.7770 ha         1 M0G       0.123000
     24 H4          14.9880     0.5480    21.6200 ha         1 M0G       0.133000
     25 H5          11.5150    -1.9390    21.2940 ha         1 M0G       0.134000
     26 H6          13.7060     2.1260    23.0430 ha         1 M0G       0.123000
     27 H7          11.3590     1.6820    23.5910 ha         1 M0G       0.129000
     28 H8          10.0260    -2.3840    23.1700 ho         1 M0G       0.463000
     29 H9          10.0800    -0.5950    24.9120 hc         1 M0G       0.057200
     30 H10          9.5720     0.9930    24.3600 hc         1 M0G       0.057200
     31 H11          7.7400    -0.1110    25.6120 hc         1 M0G       0.040700
     32 H12          7.2550     0.1380    23.9350 hc         1 M0G       0.040700
     33 H13          7.7470    -1.4670    24.4810 hc         1 M0G       0.040700
     34 H14          8.5850    -1.3550    20.7920 hn         1 M0G       0.179000
     35 H15          5.9310     0.2740    21.8420 hc         1 M0G       0.054367
     36 H16          6.4140     1.9580    21.7570 hc         1 M0G       0.054367
     37 H17          4.8350     1.4690    21.1180 hc         1 M0G       0.054367
     38 CL          14.2000    -1.8990    20.3730 cl         1 M0G      -0.210000
@<TRIPOS>BOND
     1     1     3 ar  
     2     1     4 ar  
     3     2     3 ar  
     4     2     6 ar  
     5     2    19 1   
     6     3    21 1   
     7     4     5 ar  
     8     4    22 1   
     9     5     6 ar  
    10     5    23 1   
    11     6    20 1   
    12     7     9 ar  
    13     7    12 ar  
    14     7    13 1   
    15     8    10 ar  
    16     8    11 ar  
    17     8    24 1   
    18     9    10 ar  
    19     9    25 1   
    20    10    38 1   
    21    11    12 ar  
    22    11    26 1   
    23    12    27 1   
    24    13    14 1   
    25    13    15 1   
    26    13    17 1   
    27    14    28 1   
    28    15    16 1   
    29    15    29 1   
    30    15    30 1   
    31    16    31 1   
    32    16    32 1   
    33    16    33 1   
    34    17    18 2   
    35    17    19 1   
    36    19    34 1   
    37    20    35 1   
    38    20    36 1   
    39    20    37 1   
@<TRIPOS>SUBSTRUCTURE
     1 M0G         1 TEMP              0 ****  ****    0 ROOT
