@<TRIPOS>MOLECULE
M0H
   17    16     1     0     0
SMALL
No Charge or Current Charge


@<TRIPOS>ATOM
      1 O           14.2450     7.9200    43.5440 o          1 M0H      -0.722500
      2 OXT         15.0920     6.0110    43.0180 o          1 M0H      -0.722500
      3 C           14.3940     6.9850    42.7670 c          1 M0H       0.725000
      4 CA          13.5930     7.0030    41.4040 c3         1 M0H       0.014500
      5 N           12.0830     6.9850    41.4970 n8         1 M0H      -0.990200
      6 CB          14.0710     8.1960    40.5320 c3         1 M0H       0.088600
      7 SG          13.1980     8.2570    38.8810 ss         1 M0H      -0.613000
      8 CD          13.9800     6.8250    38.0290 c3         1 M0H       0.324600
      9 OE          15.3520     7.1280    37.8180 oh         1 M0H      -0.637000
     10 HA          13.8810     6.0880    40.8710 h1         1 M0H       0.047700
     11 HN1         11.7820     7.7670    42.0910 hn         1 M0H       0.386000
     12 HN2         11.7240     7.2420    40.5690 hn         1 M0H       0.386000
     13 HB1         13.8760     9.1350    41.0670 h1         1 M0H       0.074700
     14 HB2         15.1560     8.1240    40.3750 h1         1 M0H       0.074700
     15 HD1         13.8840     5.9180    38.6390 h2         1 M0H       0.062200
     16 HD2         13.4860     6.6640    37.0610 h2         1 M0H       0.062200
     17 HE          15.3600     8.0150    37.4010 ho         1 M0H       0.439000
@<TRIPOS>BOND
     1     1     3 1   
     2     2     3 1   
     3     3     4 1   
     4     4     5 1   
     5     4     6 1   
     6     4    10 1   
     7     5    11 1   
     8     5    12 1   
     9     6     7 1   
    10     6    13 1   
    11     6    14 1   
    12     7     8 1   
    13     8     9 1   
    14     8    15 1   
    15     8    16 1   
    16     9    17 1   
@<TRIPOS>SUBSTRUCTURE
     1 M0H         1 TEMP              0 ****  ****    0 ROOT
