@<TRIPOS>MOLECULE
M0H
   17    16     1     0     0
SMALL
abcg2


@<TRIPOS>ATOM
      1 O           13.7440     7.5310    43.6950 o          1 M0H      -0.722500
      2 OXT         15.4670     6.5480    42.6690 o          1 M0H      -0.722500
      3 C           14.3120     7.0120    42.7150 c          1 M0H       0.725000
      4 CA          13.5220     6.9930    41.3800 c3         1 M0H       0.014500
      5 N           12.0930     7.0540    41.6110 n8         1 M0H      -0.990200
      6 CB          14.0730     8.1390    40.5210 c3         1 M0H       0.088600
      7 SG          13.2880     8.2990    38.8860 ss         1 M0H      -0.613000
      8 CD          14.0280     6.8830    38.0160 c3         1 M0H       0.324600
      9 OE          15.4040     6.9840    37.8300 oh         1 M0H      -0.637000
     10 HA          13.7550     6.0500    40.8730 h1         1 M0H       0.047700
     11 HN1         11.9100     7.7850    42.2870 hn         1 M0H       0.386000
     12 HN2         11.6190     7.3150    40.7530 hn         1 M0H       0.386000
     13 HB1         13.8970     9.0970    41.0180 h1         1 M0H       0.074700
     14 HB2         15.1490     8.0400    40.3760 h1         1 M0H       0.074700
     15 HD1         13.8450     5.9720    38.5850 h2         1 M0H       0.062200
     16 HD2         13.4680     6.8120    37.0760 h2         1 M0H       0.062200
     17 HE          15.5820     7.7500    37.2730 ho         1 M0H       0.439000
@<TRIPOS>BOND
     1     1     3 1   
     2     2     3 1   
     3     3     4 1   
     4     4     5 1   
     5     4     6 1   
     6     4    10 1   
     7     5    11 1   
     8     5    12 1   
     9     6     7 1   
    10     6    13 1   
    11     6    14 1   
    12     7     8 1   
    13     8     9 1   
    14     8    15 1   
    15     8    16 1   
    16     9    17 1   
@<TRIPOS>SUBSTRUCTURE
     1 M0H         1 TEMP              0 ****  ****    0 ROOT
