@<TRIPOS>MOLECULE
M0I
   62    64     1     0     0
SMALL
No Charge or Current Charge


@<TRIPOS>ATOM
      1 C10        -37.7790   -11.4550   -36.7330 ca         1 M0I      -0.112500
      2 C13        -35.7600   -12.8330   -38.1210 ca         1 M0I      -0.097500
      3 C15        -32.7620   -10.0950   -33.1680 c3         1 M0I       0.157300
      4 C17        -32.6600    -9.4150   -30.7130 ca         1 M0I       0.184000
      5 C20        -30.6430    -9.7480   -29.3610 ca         1 M0I      -0.120600
      6 C21        -29.9400    -9.6150   -28.0210 c          1 M0I       0.618700
      7 C26        -30.6930   -10.4120   -31.7230 ca         1 M0I      -0.085000
      8 C28        -35.3220    -9.4360   -34.9360 ca         1 M0I      -0.018500
      9 C02        -35.0800   -11.0290   -32.9570 c          1 M0I       0.622700
     10 C04        -33.1200   -12.5960   -32.9470 c3         1 M0I       0.006000
     11 C05        -33.6790   -13.7030   -33.8700 c          1 M0I       0.605100
     12 C07        -35.0190   -14.0080   -35.9860 c3         1 M0I       0.148300
     13 C08        -35.9400   -13.0630   -36.7430 ca         1 M0I      -0.117300
     14 C09        -36.9570   -12.3700   -36.0540 ca         1 M0I      -0.097500
     15 C11        -37.5950   -11.2300   -38.1070 ca         1 M0I      -0.108000
     16 C12        -36.5870   -11.9210   -38.8010 ca         1 M0I      -0.112500
     17 C16        -32.0240    -9.9700   -31.8400 ca         1 M0I      -0.143300
     18 C19        -31.9800    -9.3070   -29.4910 ca         1 M0I      -0.101000
     19 C25        -30.0090   -10.3050   -30.4990 ca         1 M0I      -0.105000
     20 C27        -35.7810    -9.9080   -33.6880 ca         1 M0I      -0.215600
     21 C29        -36.0380    -8.4480   -35.6310 ca         1 M0I      -0.209000
     22 C30        -37.2290    -7.9170   -35.1050 ca         1 M0I       0.365000
     23 C32        -38.7860    -5.9230   -35.1190 c3         1 M0I       0.220100
     24 C33        -37.9510    -6.8940   -37.3000 c3         1 M0I       0.220100
     25 C34        -37.6900    -8.3940   -33.8650 ca         1 M0I      -0.209000
     26 C35        -36.9810    -9.3850   -33.1660 ca         1 M0I      -0.018500
     27 N03        -33.7040   -11.2400   -33.2050 n          1 M0I      -0.421800
     28 N06        -34.2160   -13.2360   -35.0470 ns         1 M0I      -0.503900
     29 N22        -28.6070   -10.0140   -27.9700 ns         1 M0I      -0.390400
     30 N31        -37.9560    -6.9320   -35.8190 nh         1 M0I      -0.828400
     31 O01        -35.7180   -11.8190   -32.2740 o          1 M0I      -0.574100
     32 O14        -33.6870   -14.8900   -33.5700 o          1 M0I      -0.594100
     33 O23        -27.7760    -9.7000   -26.8240 oh         1 M0I      -0.410100
     34 O24        -30.5170    -9.1890   -27.0260 o          1 M0I      -0.564100
     35 H1         -38.5540   -10.9160   -36.1930 ha         1 M0I       0.113500
     36 H2         -34.9740   -13.3530   -38.6650 ha         1 M0I       0.122000
     37 H3         -32.0360   -10.2140   -33.9830 h1         1 M0I       0.068200
     38 H4         -33.2940    -9.1540   -33.3520 h1         1 M0I       0.068200
     39 H5         -30.1840   -10.8450   -32.5820 ha         1 M0I       0.120000
     40 H6         -34.4240    -9.8480   -35.3930 ha         1 M0I       0.117500
     41 H7         -33.3070   -12.8870   -31.9060 h1         1 M0I       0.071700
     42 H8         -32.0360   -12.5670   -33.1080 h1         1 M0I       0.071700
     43 H9         -35.6170   -14.7490   -35.4390 h1         1 M0I       0.061700
     44 H10        -34.3530   -14.5400   -36.6780 h1         1 M0I       0.061700
     45 H11        -37.1010   -12.5310   -34.9870 ha         1 M0I       0.122000
     46 H12        -38.2300   -10.5210   -38.6330 ha         1 M0I       0.110000
     47 H13        -36.4420   -11.7460   -39.8650 ha         1 M0I       0.113500
     48 H14        -32.5030    -8.8730   -28.6410 ha         1 M0I       0.157000
     49 H15        -28.9850   -10.6670   -30.4550 ha         1 M0I       0.122000
     50 H16        -35.6590    -8.1020   -36.5870 ha         1 M0I       0.116000
     51 H17        -38.3210    -5.6340   -34.1670 h1         1 M0I       0.038367
     52 H18        -38.8890    -5.0140   -35.7270 h1         1 M0I       0.038367
     53 H19        -39.7880    -6.3220   -34.9160 h1         1 M0I       0.038367
     54 H20        -38.8710    -6.4320   -37.6830 h1         1 M0I       0.038367
     55 H21        -37.0920    -6.3170   -37.6680 h1         1 M0I       0.038367
     56 H22        -37.8950    -7.9110   -37.7120 h1         1 M0I       0.038367
     57 H23        -38.6160    -8.0170   -33.4430 ha         1 M0I       0.116000
     58 H24        -37.3710    -9.7490   -32.2170 ha         1 M0I       0.117500
     59 H25        -34.1510   -12.2380   -35.1950 hn         1 M0I       0.316500
     60 H26        -28.1140   -10.2100   -28.8380 hn         1 M0I       0.343500
     61 H27        -27.3580   -10.5640   -26.5960 ho         1 M0I       0.440000
     62 F18        -33.9360    -8.9770   -30.7980 f          1 M0I      -0.166000
@<TRIPOS>BOND
     1     1    14 ar  
     2     1    15 ar  
     3     1    35 1   
     4     2    13 ar  
     5     2    16 ar  
     6     2    36 1   
     7     3    17 1   
     8     3    27 1   
     9     3    37 1   
    10     3    38 1   
    11     4    17 ar  
    12     4    18 ar  
    13     4    62 1   
    14     5     6 1   
    15     5    18 ar  
    16     5    19 ar  
    17     6    29 1   
    18     6    34 2   
    19     7    17 ar  
    20     7    19 ar  
    21     7    39 1   
    22     8    20 ar  
    23     8    21 ar  
    24     8    40 1   
    25     9    20 1   
    26     9    27 1   
    27     9    31 2   
    28    10    11 1   
    29    10    27 1   
    30    10    41 1   
    31    10    42 1   
    32    11    28 1   
    33    11    32 2   
    34    12    13 1   
    35    12    28 1   
    36    12    43 1   
    37    12    44 1   
    38    13    14 ar  
    39    14    45 1   
    40    15    16 ar  
    41    15    46 1   
    42    16    47 1   
    43    18    48 1   
    44    19    49 1   
    45    20    26 ar  
    46    21    22 ar  
    47    21    50 1   
    48    22    25 ar  
    49    22    30 1   
    50    23    30 1   
    51    23    51 1   
    52    23    52 1   
    53    23    53 1   
    54    24    30 1   
    55    24    54 1   
    56    24    55 1   
    57    24    56 1   
    58    25    26 ar  
    59    25    57 1   
    60    26    58 1   
    61    28    59 1   
    62    29    33 1   
    63    29    60 1   
    64    33    61 1   
@<TRIPOS>SUBSTRUCTURE
     1 M0I         1 TEMP              0 ****  ****    0 ROOT
