@<TRIPOS>MOLECULE
M0I
   62    64     1     0     0
SMALL
bcc


@<TRIPOS>ATOM
      1 C10        -37.7860   -12.0680   -36.8710 ca         1 M0I      -0.130500
      2 C13        -35.7510   -13.4050   -38.1930 ca         1 M0I      -0.115500
      3 C15        -32.8210   -10.1040   -33.3500 c3         1 M0I       0.157300
      4 C17        -32.7170    -9.5250   -30.8920 ca         1 M0I       0.148900
      5 C20        -30.6920    -9.5830   -29.6320 ca         1 M0I      -0.120600
      6 C21        -30.0130    -9.3540   -28.3200 c          1 M0I       0.685700
      7 C26        -30.7010   -10.1280   -31.9760 ca         1 M0I      -0.103000
      8 C28        -35.3990    -9.3130   -34.9830 ca         1 M0I      -0.036500
      9 C02        -35.1330   -11.0120   -33.1420 c          1 M0I       0.689700
     10 C04        -33.2730   -12.4980   -32.9250 c3         1 M0I       0.006000
     11 C05        -33.8530   -13.6220   -33.7760 c          1 M0I       0.672100
     12 C07        -34.7390   -14.1640   -36.0150 c3         1 M0I       0.148300
     13 C08        -35.7920   -13.4290   -36.8030 ca         1 M0I      -0.117300
     14 C09        -36.8210   -12.7530   -36.1490 ca         1 M0I      -0.115500
     15 C11        -37.7400   -12.0520   -38.2610 ca         1 M0I      -0.126000
     16 C12        -36.7210   -12.7240   -38.9200 ca         1 M0I      -0.130500
     17 C16        -32.0710    -9.9170   -32.0560 ca         1 M0I      -0.143300
     18 C19        -32.0630    -9.3480   -29.6940 ca         1 M0I      -0.119000
     19 C25        -30.0100    -9.9620   -30.7840 ca         1 M0I      -0.123000
     20 C27        -35.7470    -9.7960   -33.7220 ca         1 M0I      -0.215600
     21 C29        -36.0610    -8.2480   -35.5580 ca         1 M0I      -0.227000
     22 C30        -37.1130    -7.5960   -34.8800 ca         1 M0I       0.226600
     23 C32        -38.8680    -5.9220   -34.7320 c3         1 M0I       0.220100
     24 C33        -37.3700    -6.0430   -36.7290 c3         1 M0I       0.220100
     25 C34        -37.4690    -8.0990   -33.6100 ca         1 M0I      -0.227000
     26 C35        -36.8090    -9.1790   -33.0620 ca         1 M0I      -0.036500
     27 N03        -33.7850   -11.1910   -33.2790 n          1 M0I      -0.488800
     28 N06        -34.1150   -13.2880   -35.0490 ns         1 M0I      -0.570900
     29 N22        -28.9460   -10.1410   -28.1020 ns         1 M0I      -0.457400
     30 N31        -37.7590    -6.5330   -35.4270 nh         1 M0I      -0.690000
     31 O01        -35.8210   -11.8800   -32.6210 o          1 M0I      -0.574100
     32 O14        -34.0020   -14.7430   -33.3180 o          1 M0I      -0.594100
     33 O23        -28.1660    -9.9490   -27.0060 oh         1 M0I      -0.371100
     34 O24        -30.4200    -8.5340   -27.5160 o          1 M0I      -0.564100
     35 H1         -38.5780   -11.5450   -36.3490 ha         1 M0I       0.131500
     36 H2         -34.9520   -13.9200   -38.7140 ha         1 M0I       0.140000
     37 H3         -32.1050   -10.3080   -34.1490 h1         1 M0I       0.068200
     38 H4         -33.3340    -9.1830   -33.6150 h1         1 M0I       0.068200
     39 H5         -30.1610   -10.4190   -32.8680 ha         1 M0I       0.138000
     40 H6         -34.6090    -9.7920   -35.5510 ha         1 M0I       0.135500
     41 H7         -33.4400   -12.7470   -31.8750 h1         1 M0I       0.071700
     42 H8         -32.1910   -12.4950   -33.0830 h1         1 M0I       0.071700
     43 H9         -35.1830   -14.9990   -35.4720 h1         1 M0I       0.061700
     44 H10        -33.9930   -14.5880   -36.6930 h1         1 M0I       0.061700
     45 H11        -36.8630   -12.7520   -35.0660 ha         1 M0I       0.140000
     46 H12        -38.4930   -11.5160   -38.8240 ha         1 M0I       0.128000
     47 H13        -36.6740   -12.7130   -40.0010 ha         1 M0I       0.131500
     48 H14        -32.6150    -9.0340   -28.8170 ha         1 M0I       0.175000
     49 H15        -28.9380   -10.1110   -30.7790 ha         1 M0I       0.140000
     50 H16        -35.7610    -7.9310   -36.5460 ha         1 M0I       0.134000
     51 H17        -38.5680    -5.5010   -33.7680 h1         1 M0I       0.038367
     52 H18        -39.2650    -5.1110   -35.3350 h1         1 M0I       0.038367
     53 H19        -39.6810    -6.6300   -34.5510 h1         1 M0I       0.038367
     54 H20        -37.9680    -5.1720   -36.9810 h1         1 M0I       0.038367
     55 H21        -36.3200    -5.7380   -36.7520 h1         1 M0I       0.038367
     56 H22        -37.5200    -6.7880   -37.5150 h1         1 M0I       0.038367
     57 H23        -38.2710    -7.6470   -33.0440 ha         1 M0I       0.134000
     58 H24        -37.1220    -9.5400   -32.0910 ha         1 M0I       0.135500
     59 H25        -33.9110   -12.3470   -35.3490 hn         1 M0I       0.316500
     60 H26        -28.6430   -10.8750   -28.7260 hn         1 M0I       0.343500
     61 H27        -28.5420   -10.4920   -26.3000 ho         1 M0I       0.401000
     62 F18        -34.0390    -9.3000   -30.9390 f          1 M0I      -0.130900
@<TRIPOS>BOND
     1     1    14 ar  
     2     1    15 ar  
     3     1    35 1   
     4     2    13 ar  
     5     2    16 ar  
     6     2    36 1   
     7     3    17 1   
     8     3    27 1   
     9     3    37 1   
    10     3    38 1   
    11     4    17 ar  
    12     4    18 ar  
    13     4    62 1   
    14     5     6 1   
    15     5    18 ar  
    16     5    19 ar  
    17     6    29 1   
    18     6    34 2   
    19     7    17 ar  
    20     7    19 ar  
    21     7    39 1   
    22     8    20 ar  
    23     8    21 ar  
    24     8    40 1   
    25     9    20 1   
    26     9    27 1   
    27     9    31 2   
    28    10    11 1   
    29    10    27 1   
    30    10    41 1   
    31    10    42 1   
    32    11    28 1   
    33    11    32 2   
    34    12    13 1   
    35    12    28 1   
    36    12    43 1   
    37    12    44 1   
    38    13    14 ar  
    39    14    45 1   
    40    15    16 ar  
    41    15    46 1   
    42    16    47 1   
    43    18    48 1   
    44    19    49 1   
    45    20    26 ar  
    46    21    22 ar  
    47    21    50 1   
    48    22    25 ar  
    49    22    30 1   
    50    23    30 1   
    51    23    51 1   
    52    23    52 1   
    53    23    53 1   
    54    24    30 1   
    55    24    54 1   
    56    24    55 1   
    57    24    56 1   
    58    25    26 ar  
    59    25    57 1   
    60    26    58 1   
    61    28    59 1   
    62    29    33 1   
    63    29    60 1   
    64    33    61 1   
@<TRIPOS>SUBSTRUCTURE
     1 M0I         1 TEMP              0 ****  ****    0 ROOT
