@<TRIPOS>MOLECULE
M0J
   28    28     1     0     0
SMALL
bcc


@<TRIPOS>ATOM
      1 N1          -6.0120    -9.6860   -17.4560 ns         1 M0J      -0.492100
      2 C4          -5.0650   -10.1600   -16.5520 ca         1 M0J       0.095600
      3 C5          -4.6300   -11.4790   -16.7380 ca         1 M0J      -0.176000
      4 C6          -3.6950   -12.0460   -15.8900 ca         1 M0J      -0.099500
      5 C7          -3.1650   -11.3150   -14.8350 ca         1 M0J      -0.162000
      6 C8          -3.5950   -10.0100   -14.6480 ca         1 M0J      -0.099500
      7 O           -6.2890    -7.5140   -16.7930 o          1 M0J      -0.610100
      8 C3          -6.5420    -8.4230   -17.5690 c          1 M0J       0.804100
      9 N           -7.3430    -8.2790   -18.6550 ns         1 M0J      -0.577900
     10 C2          -8.2120    -7.1440   -18.8400 c3         1 M0J       0.113000
     11 C1          -9.6450    -7.4110   -18.3980 c3         1 M0J       0.118100
     12 O1          -9.6100    -7.7390   -17.0260 oh         1 M0J      -0.582800
     13 C          -10.5250    -6.2020   -18.6790 c3         1 M0J      -0.128100
     14 C9          -4.5350    -9.4260   -15.4880 ca         1 M0J      -0.176000
     15 H1          -6.3060   -10.3660   -18.1410 hn         1 M0J       0.306500
     16 H2          -5.0340   -12.0640   -17.5560 ha         1 M0J       0.145000
     17 H3          -3.3800   -13.0670   -16.0610 ha         1 M0J       0.128500
     18 H4          -2.4330   -11.7570   -14.1720 ha         1 M0J       0.131000
     19 H5          -3.1950    -9.4230   -13.8300 ha         1 M0J       0.128500
     20 H6          -7.5460    -9.0880   -19.2200 hn         1 M0J       0.297500
     21 H7          -7.8050    -6.2930   -18.2940 h1         1 M0J       0.069700
     22 H8          -8.2170    -6.8720   -19.8980 h1         1 M0J       0.069700
     23 H9         -10.0260    -8.2610   -18.9850 h1         1 M0J       0.018700
     24 H10        -10.4980    -7.9900   -16.7540 ho         1 M0J       0.402000
     25 H11        -11.5550    -6.3860   -18.3680 hc         1 M0J       0.044033
     26 H12        -10.1630    -5.3190   -18.1490 hc         1 M0J       0.044033
     27 H13        -10.5420    -5.9730   -19.7450 hc         1 M0J       0.044033
     28 H14         -4.8490    -8.4120   -15.3080 ha         1 M0J       0.145000
@<TRIPOS>BOND
     1     1     2 1   
     2     1     8 1   
     3     1    15 1   
     4     2     3 ar  
     5     2    14 ar  
     6     3     4 ar  
     7     3    16 1   
     8     4     5 ar  
     9     4    17 1   
    10     5     6 ar  
    11     5    18 1   
    12     6    14 ar  
    13     6    19 1   
    14     7     8 2   
    15     8     9 1   
    16     9    10 1   
    17     9    20 1   
    18    10    11 1   
    19    10    21 1   
    20    10    22 1   
    21    11    12 1   
    22    11    13 1   
    23    11    23 1   
    24    12    24 1   
    25    13    25 1   
    26    13    26 1   
    27    13    27 1   
    28    14    28 1   
@<TRIPOS>SUBSTRUCTURE
     1 M0J         1 TEMP              0 ****  ****    0 ROOT
