@<TRIPOS>MOLECULE
M0J
   28    28     1     0     0
SMALL
No Charge or Current Charge


@<TRIPOS>ATOM
      1 N1          -5.9320    -9.6480   -17.4210 ns         1 M0J      -0.166000
      2 C4          -4.9710   -10.1900   -16.5240 ca         1 M0J       0.003000
      3 C5          -4.5410   -11.5110   -16.7520 ca         1 M0J      -0.158000
      4 C6          -3.5940   -12.1150   -15.9060 ca         1 M0J      -0.081500
      5 C7          -3.0670   -11.3990   -14.8200 ca         1 M0J      -0.144000
      6 C8          -3.4880   -10.0820   -14.5800 ca         1 M0J      -0.081500
      7 O           -6.2990    -7.4530   -16.7690 o          1 M0J      -0.610100
      8 C3          -6.5280    -8.4000   -17.5090 c          1 M0J       0.670100
      9 N           -7.4180    -8.3250   -18.5560 ns         1 M0J      -0.510900
     10 C2          -8.2650    -7.1590   -18.8570 c3         1 M0J       0.113000
     11 C1          -9.7460    -7.3520   -18.4240 c3         1 M0J       0.141300
     12 O1          -9.8360    -7.5970   -17.0140 oh         1 M0J      -0.645000
     13 C          -10.6190    -6.1320   -18.7710 c3         1 M0J      -0.128100
     14 C9          -4.4360    -9.4780   -15.4260 ca         1 M0J      -0.158000
     15 H1          -6.2370   -10.3030   -18.1270 hn         1 M0J       0.140000
     16 H2          -4.9420   -12.0760   -17.5900 ha         1 M0J       0.127000
     17 H3          -3.2690   -13.1360   -16.0940 ha         1 M0J       0.110500
     18 H4          -2.3340   -11.8650   -14.1650 ha         1 M0J       0.113000
     19 H5          -3.0810    -9.5270   -13.7370 ha         1 M0J       0.110500
     20 H6          -7.5380    -9.1600   -19.1150 hn         1 M0J       0.297500
     21 H7          -7.8580    -6.2640   -18.3680 h1         1 M0J       0.069700
     22 H8          -8.2330    -6.9810   -19.9400 h1         1 M0J       0.069700
     23 H9         -10.1440    -8.2180   -18.9700 h1         1 M0J       0.018700
     24 H10        -10.7770    -7.7970   -16.8170 ho         1 M0J       0.441000
     25 H11        -11.6640    -6.3080   -18.4900 hc         1 M0J       0.044033
     26 H12        -10.2660    -5.2350   -18.2470 hc         1 M0J       0.044033
     27 H13        -10.5890    -5.9330   -19.8490 hc         1 M0J       0.044033
     28 H14         -4.7410    -8.4600   -15.2090 ha         1 M0J       0.127000
@<TRIPOS>BOND
     1     1     2 1   
     2     1     8 1   
     3     1    15 1   
     4     2     3 ar  
     5     2    14 ar  
     6     3     4 ar  
     7     3    16 1   
     8     4     5 ar  
     9     4    17 1   
    10     5     6 ar  
    11     5    18 1   
    12     6    14 ar  
    13     6    19 1   
    14     7     8 2   
    15     8     9 1   
    16     9    10 1   
    17     9    20 1   
    18    10    11 1   
    19    10    21 1   
    20    10    22 1   
    21    11    12 1   
    22    11    13 1   
    23    11    23 1   
    24    12    24 1   
    25    13    25 1   
    26    13    26 1   
    27    13    27 1   
    28    14    28 1   
@<TRIPOS>SUBSTRUCTURE
     1 M0J         1 TEMP              0 ****  ****    0 ROOT
