@<TRIPOS>MOLECULE
M0K
   32    33     1     0     0
SMALL
No Charge or Current Charge


@<TRIPOS>ATOM
      1 C1          36.4860     9.7890   113.1870 ca         1 M0K      -0.215000
      2 C2          35.3960     9.2750   113.9060 ca         1 M0K      -0.026000
      3 C3          35.6040     8.4070   115.0010 ca         1 M0K      -0.182600
      4 C4          34.3980     7.8440   115.7090 c          1 M0K       0.622700
      5 C5          33.5230     5.9270   117.0800 c3         1 M0K       0.137000
      6 C6          34.1740     4.9820   118.0800 cx         1 M0K      -0.136700
      7 C10         38.1840     6.3120   116.5650 c3         1 M0K       0.008600
      8 O3          38.7100     4.2500   115.4850 o          1 M0K      -0.714000
      9 C11         37.8340     5.0800   115.6850 c          1 M0K       0.707000
     10 O2          36.7000     4.9870   115.2310 o          1 M0K      -0.714000
     11 C9          36.9310     8.0900   115.3850 ca         1 M0K       0.234100
     12 C12         38.0180     8.6140   114.6590 ca         1 M0K      -0.230000
     13 C           37.7910     9.4510   113.5620 ca         1 M0K       0.199000
     14 F           38.8380     9.9560   112.8750 f          1 M0K      -0.197000
     15 O           33.3330     8.4490   115.7540 o          1 M0K      -0.668100
     16 N           34.5450     6.6170   116.3040 ns         1 M0K      -0.486900
     17 C8          33.4290     3.7760   118.6040 cx         1 M0K      -0.135900
     18 C7          34.6050     3.5920   117.6740 cx         1 M0K      -0.135900
     19 H1          36.3190    10.4480   112.3390 ha         1 M0K       0.117000
     20 H2          34.3850     9.5360   113.5980 ha         1 M0K       0.119000
     21 H3          32.9120     6.6620   117.6210 h1         1 M0K       0.044700
     22 H4          32.8720     5.3690   116.3940 h1         1 M0K       0.044700
     23 H5          34.8120     5.5050   118.7900 hc         1 M0K       0.081700
     24 H6          38.2880     5.9450   117.5940 h1         1 M0K       0.040700
     25 H7          39.1630     6.6970   116.2580 h1         1 M0K       0.040700
     26 H9          39.0400     8.4060   114.9540 ha         1 M0K       0.136000
     27 H10         35.4390     6.1520   116.1460 hn         1 M0K       0.396500
     28 H11         33.5640     3.5130   119.6510 hc         1 M0K       0.067200
     29 H12         32.4360     3.5760   118.2090 hc         1 M0K       0.067200
     30 H13         34.4000     3.2710   116.6560 hc         1 M0K       0.067200
     31 H14         35.5310     3.2070   118.0950 hc         1 M0K       0.067200
     32 O1          37.1630     7.3420   116.5230 os         1 M0K      -0.353100
@<TRIPOS>BOND
     1     1     2 ar  
     2     1    13 ar  
     3     1    19 1   
     4     2     3 ar  
     5     2    20 1   
     6     3     4 1   
     7     3    11 ar  
     8     4    15 2   
     9     4    16 1   
    10     5     6 1   
    11     5    16 1   
    12     5    21 1   
    13     5    22 1   
    14     6    17 1   
    15     6    18 1   
    16     6    23 1   
    17     7     9 1   
    18     7    24 1   
    19     7    25 1   
    20     7    32 1   
    21     8     9 1   
    22     9    10 1   
    23    11    12 ar  
    24    11    32 1   
    25    12    13 ar  
    26    12    26 1   
    27    13    14 1   
    28    16    27 1   
    29    17    18 1   
    30    17    28 1   
    31    17    29 1   
    32    18    30 1   
    33    18    31 1   
@<TRIPOS>SUBSTRUCTURE
     1 M0K         1 TEMP              0 ****  ****    0 ROOT
