@<TRIPOS>MOLECULE
M0K
   32    33     1     0     0
SMALL
abcg2


@<TRIPOS>ATOM
      1 C1          36.4680     9.9370   113.6030 ca         1 M0K      -0.215000
      2 C2          35.4390     9.3370   114.3120 ca         1 M0K      -0.026000
      3 C3          35.6700     8.2900   115.1970 ca         1 M0K      -0.182600
      4 C4          34.4880     7.6850   115.8990 c          1 M0K       0.622700
      5 C5          33.4520     5.5850   116.6010 c3         1 M0K       0.137000
      6 C6          33.8520     5.3590   118.0380 cx         1 M0K      -0.136700
      7 C10         38.1600     5.9350   116.1690 c3         1 M0K       0.008600
      8 O3          38.6220     4.1030   114.7780 o          1 M0K      -0.714000
      9 C11         37.7370     4.9030   115.1070 c          1 M0K       0.707000
     10 O2          36.5560     4.9410   114.6970 o          1 M0K      -0.714000
     11 C9          36.9870     7.8690   115.4220 ca         1 M0K       0.234100
     12 C12         38.0360     8.4650   114.7230 ca         1 M0K      -0.230000
     13 C           37.7500     9.4770   113.8300 ca         1 M0K       0.199000
     14 F           38.7710    10.0500   113.1740 f          1 M0K      -0.197000
     15 O           33.6280     8.4030   116.3990 o          1 M0K      -0.668100
     16 N           34.4320     6.3510   115.8650 ns         1 M0K      -0.486900
     17 C8          33.4850     4.0750   118.7150 cx         1 M0K      -0.135900
     18 C7          34.9130     4.3490   118.3460 cx         1 M0K      -0.135900
     19 H1          36.2770    10.7370   112.9010 ha         1 M0K       0.117000
     20 H2          34.4250     9.6790   114.1520 ha         1 M0K       0.119000
     21 H3          32.4810     6.0800   116.5490 h1         1 M0K       0.044700
     22 H4          33.3440     4.6220   116.0970 h1         1 M0K       0.044700
     23 H5          33.8420     6.2500   118.6580 hc         1 M0K       0.081700
     24 H6          38.2640     5.4280   117.1310 h1         1 M0K       0.040700
     25 H7          39.1450     6.3420   115.9250 h1         1 M0K       0.040700
     26 H9          39.0660     8.1770   114.8870 ha         1 M0K       0.136000
     27 H10         35.2240     5.8370   115.4590 hn         1 M0K       0.396500
     28 H11         33.2090     4.1070   119.7620 hc         1 M0K       0.067200
     29 H12         32.9450     3.3330   118.1380 hc         1 M0K       0.067200
     30 H13         35.3380     3.7980   117.5150 hc         1 M0K       0.067200
     31 H14         35.6170     4.5650   119.1400 hc         1 M0K       0.067200
     32 O1          37.2010     6.9570   116.3880 os         1 M0K      -0.353100
@<TRIPOS>BOND
     1     1     2 ar  
     2     1    13 ar  
     3     1    19 1   
     4     2     3 ar  
     5     2    20 1   
     6     3     4 1   
     7     3    11 ar  
     8     4    15 2   
     9     4    16 1   
    10     5     6 1   
    11     5    16 1   
    12     5    21 1   
    13     5    22 1   
    14     6    17 1   
    15     6    18 1   
    16     6    23 1   
    17     7     9 1   
    18     7    24 1   
    19     7    25 1   
    20     7    32 1   
    21     8     9 1   
    22     9    10 1   
    23    11    12 ar  
    24    11    32 1   
    25    12    13 ar  
    26    12    26 1   
    27    13    14 1   
    28    16    27 1   
    29    17    18 1   
    30    17    28 1   
    31    17    29 1   
    32    18    30 1   
    33    18    31 1   
@<TRIPOS>SUBSTRUCTURE
     1 M0K         1 TEMP              0 ****  ****    0 ROOT
