@<TRIPOS>MOLECULE
M0L
   71    75     1     0     0
SMALL
No Charge or Current Charge


@<TRIPOS>ATOM
      1 O3          26.9450     4.2210    15.2120 o          1 M0L      -0.588100
      2 N2          28.0500     3.3310    13.4180 n          1 M0L      -0.340000
      3 N3          31.4530     4.4280    15.4540 n2         1 M0L      -0.628900
      4 N1          29.2050     4.4860    15.2550 n          1 M0L      -0.386300
      5 C10         31.4930     4.9390    20.4830 ca         1 M0L      -0.104500
      6 C9          32.6500     5.7270    20.3990 ca         1 M0L       0.123000
      7 C3          27.8410     6.1250    17.9300 ca         1 M0L      -0.074500
      8 C2          27.5180     7.4100    18.3990 ca         1 M0L      -0.109000
      9 C5          29.8890     6.9930    16.9610 ca         1 M0L      -0.074500
     10 C6          29.5670     8.2770    17.4310 ca         1 M0L      -0.109000
     11 C8          33.2420     5.9700    19.1510 ca         1 M0L      -0.104500
     12 C7          32.6710     5.4320    17.9840 ca         1 M0L      -0.087500
     13 C4          29.0310     5.8940    17.2070 ca         1 M0L      -0.087300
     14 C1          28.3820     8.4850    18.1490 ca         1 M0L       0.129000
     15 C23         27.6410     7.8360    14.3720 c3         1 M0L      -0.110100
     16 C22         32.1130     4.4740    11.2030 ca         1 M0L      -0.156000
     17 C21         29.3180     4.4630    16.7080 c5         1 M0L       0.144000
     18 C11         30.9220     4.4010    19.3170 ca         1 M0L      -0.087500
     19 C12         31.8530     4.2610    12.5660 ca         1 M0L      -0.015000
     20 C15         29.0550     2.3200    13.1260 ce         1 M0L      -0.034600
     21 Cl          33.3630     6.4020    21.8580 cl         1 M0L      -0.205000
     22 C14         28.0180     4.0230    14.6560 c          1 M0L       0.700100
     23 C13         29.3530     8.6440    12.6480 c3         1 M0L      -0.110100
     24 Cl6         27.9760    10.0940    18.7300 cl         1 M0L      -0.205000
     25 C61         31.4940     4.6520    18.0490 ca         1 M0L      -0.067300
     26 C41         30.8490     4.0580    16.7840 c5         1 M0L       0.152800
     27 C51         30.4600     4.5140    14.6280 ce         1 M0L       0.552500
     28 C31         31.2480     5.2550    10.4280 ca         1 M0L       0.173100
     29 C42         30.1270     5.8510    11.0350 ca         1 M0L      -0.243000
     30 C52         29.8750     5.6570    12.4010 ca         1 M0L       0.190100
     31 C62         30.7090     4.8180    13.1790 ca         1 M0L      -0.207900
     32 C32         28.9690     7.5370    13.6520 c3         1 M0L       0.184300
     33 C33         30.7100     6.1920     8.2110 c3         1 M0L       0.147900
     34 C34         26.8470     3.3250    12.5550 c6         1 M0L       0.097000
     35 C43         27.2290     3.4580    11.0730 c6         1 M0L       0.099000
     36 N5          28.3830     2.6250    10.7330 ns         1 M0L      -0.501900
     37 C63         29.2620     2.0640    11.6320 c          1 M0L       0.574200
     38 O11         30.1490     1.3360    11.2130 o          1 M0L      -0.559000
     39 H3          31.0380     4.7450    21.4510 ha         1 M0L       0.129000
     40 H4          27.1570     5.3010    18.1260 ha         1 M0L       0.121000
     41 H5          26.5970     7.5720    18.9530 ha         1 M0L       0.129500
     42 H6          30.8090     6.8620    16.3990 ha         1 M0L       0.121000
     43 H7          30.2360     9.1120    17.2350 ha         1 M0L       0.129500
     44 H8          34.1420     6.5750    19.0870 ha         1 M0L       0.129000
     45 H9          33.1470     5.6320    17.0270 ha         1 M0L       0.124500
     46 H10         27.3870     7.0260    15.0650 hc         1 M0L       0.048033
     47 H11         27.7190     8.7640    14.9510 hc         1 M0L       0.048033
     48 H12         26.8220     7.9440    13.6520 hc         1 M0L       0.048033
     49 H13         32.9860     4.0200    10.7420 ha         1 M0L       0.139000
     50 H14         28.6700     3.7130    17.1830 h1         1 M0L       0.072700
     51 H15         30.0260     3.7890    19.4000 ha         1 M0L       0.124500
     52 H16         32.5300     3.6300    13.1390 ha         1 M0L       0.138000
     53 H17         29.4340     1.7080    15.1530 ha         1 M0L       0.187500
     54 H18         30.3560     0.7880    13.8440 ha         1 M0L       0.187500
     55 H19         29.3960     9.6170    13.1520 hc         1 M0L       0.048033
     56 H20         30.3410     8.4510    12.2140 hc         1 M0L       0.048033
     57 H21         28.6190     8.7080    11.8370 hc         1 M0L       0.048033
     58 H22         30.9090     2.9640    16.8690 h1         1 M0L       0.074700
     59 H24         29.4470     6.4780    10.4690 ha         1 M0L       0.128000
     60 H25         29.7680     7.4400    14.3950 h1         1 M0L       0.043700
     61 H26         31.1210     6.1850     7.1940 h1         1 M0L       0.042700
     62 H27         29.6950     5.7770     8.1700 h1         1 M0L       0.042700
     63 H28         30.6510     7.2350     8.5470 h1         1 M0L       0.042700
     64 H29         26.1660     4.1450    12.8240 h1         1 M0L       0.068700
     65 H30         26.3090     2.3790    12.7100 h1         1 M0L       0.068700
     66 H31         27.4900     4.5040    10.8590 h1         1 M0L       0.052200
     67 H32         26.3760     3.1830    10.4360 h1         1 M0L       0.052200
     68 H33         28.5590     2.4160     9.7570 hn         1 M0L       0.320500
     69 C16         29.6470     1.5770    14.0940 c2         1 M0L      -0.305000
     70 O2          31.5430     5.4180     9.0910 os         1 M0L      -0.334100
     71 O1          28.7900     6.3010    12.9420 os         1 M0L      -0.384100
@<TRIPOS>BOND
     1     1    22 2   
     2     2    20 1   
     3     2    22 1   
     4     2    34 1   
     5     3    26 1   
     6     3    27 2   
     7     4    17 1   
     8     4    22 1   
     9     4    27 1   
    10     5     6 ar  
    11     5    18 ar  
    12     5    39 1   
    13     6    11 ar  
    14     6    21 1   
    15     7     8 ar  
    16     7    13 ar  
    17     7    40 1   
    18     8    14 ar  
    19     8    41 1   
    20     9    10 ar  
    21     9    13 ar  
    22     9    42 1   
    23    10    14 ar  
    24    10    43 1   
    25    11    12 ar  
    26    11    44 1   
    27    12    25 ar  
    28    12    45 1   
    29    13    17 1   
    30    14    24 1   
    31    15    32 1   
    32    15    46 1   
    33    15    47 1   
    34    15    48 1   
    35    16    19 ar  
    36    16    28 ar  
    37    16    49 1   
    38    17    26 1   
    39    17    50 1   
    40    18    25 ar  
    41    18    51 1   
    42    19    31 ar  
    43    19    52 1   
    44    20    37 1   
    45    20    69 2   
    46    23    32 1   
    47    23    55 1   
    48    23    56 1   
    49    23    57 1   
    50    25    26 1   
    51    26    58 1   
    52    27    31 1   
    53    28    29 ar  
    54    28    70 1   
    55    29    30 ar  
    56    29    59 1   
    57    30    31 ar  
    58    30    71 1   
    59    32    60 1   
    60    32    71 1   
    61    33    61 1   
    62    33    62 1   
    63    33    63 1   
    64    33    70 1   
    65    34    35 1   
    66    34    64 1   
    67    34    65 1   
    68    35    36 1   
    69    35    66 1   
    70    35    67 1   
    71    36    37 1   
    72    36    68 1   
    73    37    38 2   
    74    53    69 1   
    75    54    69 1   
@<TRIPOS>SUBSTRUCTURE
     1 M0L         1 TEMP              0 ****  ****    0 ROOT
