@<TRIPOS>MOLECULE
M0L
   71    75     1     0     0
SMALL
abcg2


@<TRIPOS>ATOM
      1 O3          26.9220     4.5110    15.1210 o          1 M0L      -0.588100
      2 N2          28.0030     3.4470    13.4310 n          1 M0L      -0.340000
      3 N3          31.3980     4.4720    15.4670 n2         1 M0L      -0.628900
      4 N1          29.1780     4.4660    15.1850 n          1 M0L      -0.386300
      5 C10         31.7180     4.9840    20.3300 ca         1 M0L      -0.104500
      6 C9          32.7830     5.8560    20.1500 ca         1 M0L       0.123000
      7 C3          27.7880     5.8160    18.1150 ca         1 M0L      -0.074500
      8 C2          27.3630     6.9970    18.7080 ca         1 M0L      -0.109000
      9 C5          29.5730     6.9770    17.0310 ca         1 M0L      -0.074500
     10 C6          29.1630     8.1670    17.6080 ca         1 M0L      -0.109000
     11 C8          33.2400     6.1670    18.8810 ca         1 M0L      -0.104500
     12 C7          32.6150     5.6020    17.7770 ca         1 M0L      -0.087500
     13 C4          28.8880     5.7880    17.2680 ca         1 M0L      -0.087300
     14 C1          28.0550     8.1660    18.4430 ca         1 M0L       0.129000
     15 C23         27.7910     7.9840    14.2020 c3         1 M0L      -0.110100
     16 C22         32.0840     4.3240    11.2740 ca         1 M0L      -0.156000
     17 C21         29.3130     4.4850    16.6460 c5         1 M0L       0.144000
     18 C11         31.1090     4.4290    19.2180 ca         1 M0L      -0.087500
     19 C12         31.7880     4.1810    12.6090 ca         1 M0L      -0.015000
     20 C15         28.9090     2.4050    13.1680 ce         1 M0L      -0.034600
     21 CL          33.5480     6.5620    21.5360 cl         1 M0L      -0.205000
     22 C14         27.9640     4.1650    14.6020 c          1 M0L       0.700100
     23 C13         29.5980     8.6350    12.5840 c3         1 M0L      -0.110100
     24 CL6         27.5330     9.6500    19.1710 cl         1 M0L      -0.205000
     25 C61         31.5390     4.7380    17.9300 ca         1 M0L      -0.067300
     26 C41         30.8260     4.1260    16.7560 c5         1 M0L       0.152800
     27 C51         30.4480     4.5820    14.6250 ce         1 M0L       0.552500
     28 C31         31.2770     5.1350    10.4700 ca         1 M0L       0.173100
     29 C42         30.2030     5.8100    11.0400 ca         1 M0L      -0.243000
     30 C52         29.9170     5.6620    12.3940 ca         1 M0L       0.190100
     31 C62         30.6960     4.8270    13.1980 ca         1 M0L      -0.207900
     32 C32         29.0950     7.5780    13.5510 c3         1 M0L       0.184300
     33 C33         30.8090     5.9930     8.3090 c3         1 M0L       0.147900
     34 C34         26.8360     3.4590    12.5610 c6         1 M0L       0.097000
     35 C43         27.2970     3.6390    11.1330 c6         1 M0L       0.099000
     36 N5          28.3730     2.7230    10.8300 ns         1 M0L      -0.501900
     37 C63         29.1640     2.1020    11.7170 c          1 M0L       0.574200
     38 O11         30.0290     1.3060    11.3820 o          1 M0L      -0.559000
     39 H3          31.3690     4.7400    21.3240 ha         1 M0L       0.129000
     40 H4          27.2450     4.9020    18.3220 ha         1 M0L       0.121000
     41 H5          26.5030     7.0000    19.3630 ha         1 M0L       0.129500
     42 H6          30.4480     6.9910    16.3950 ha         1 M0L       0.121000
     43 H7          29.7030     9.0830    17.4110 ha         1 M0L       0.129500
     44 H8          34.0730     6.8440    18.7470 ha         1 M0L       0.129000
     45 H9          32.9700     5.8500    16.7860 ha         1 M0L       0.124500
     46 H10         27.4390     7.2270    14.9000 hc         1 M0L       0.048033
     47 H11         27.9300     8.9110    14.7570 hc         1 M0L       0.048033
     48 H12         27.0200     8.1530    13.4480 hc         1 M0L       0.048033
     49 H13         32.9220     3.7960    10.8380 ha         1 M0L       0.139000
     50 H14         28.7090     3.6820    17.0720 h1         1 M0L       0.072700
     51 H15         30.2790     3.7460    19.3640 ha         1 M0L       0.124500
     52 H16         32.3990     3.5310    13.2200 ha         1 M0L       0.138000
     53 H17         29.3190     1.7780    15.1560 ha         1 M0L       0.187500
     54 H18         30.2060     0.8940    13.8050 ha         1 M0L       0.187500
     55 H19         29.7470     9.5710    13.1230 hc         1 M0L       0.048033
     56 H20         30.5520     8.3640    12.1310 hc         1 M0L       0.048033
     57 H21         28.8740     8.8150    11.7870 hc         1 M0L       0.048033
     58 H22         30.8950     3.0350    16.8650 h1         1 M0L       0.074700
     59 H24         29.5610     6.4570    10.4570 ha         1 M0L       0.128000
     60 H25         29.8570     7.4170    14.3210 h1         1 M0L       0.043700
     61 H26         31.2460     5.9000     7.3180 h1         1 M0L       0.042700
     62 H27         29.7770     5.6360     8.2750 h1         1 M0L       0.042700
     63 H28         30.8110     7.0470     8.5980 h1         1 M0L       0.042700
     64 H29         26.1800     4.2800    12.8340 h1         1 M0L       0.068700
     65 H30         26.2710     2.5290    12.6730 h1         1 M0L       0.068700
     66 H31         27.6140     4.6710    10.9640 h1         1 M0L       0.052200
     67 H32         26.4630     3.4370    10.4590 h1         1 M0L       0.052200
     68 H33         28.5770     2.5470     9.8570 hn         1 M0L       0.320500
     69 C16         29.5010     1.6570    14.0970 c2         1 M0L      -0.305000
     70 O2          31.6080     5.2080     9.1740 os         1 M0L      -0.334100
     71 O1          28.8430     6.3200    12.8930 os         1 M0L      -0.384100
@<TRIPOS>BOND
     1     1    22 2   
     2     2    20 1   
     3     2    22 1   
     4     2    34 1   
     5     3    26 1   
     6     3    27 2   
     7     4    17 1   
     8     4    22 1   
     9     4    27 1   
    10     5     6 ar  
    11     5    18 ar  
    12     5    39 1   
    13     6    11 ar  
    14     6    21 1   
    15     7     8 ar  
    16     7    13 ar  
    17     7    40 1   
    18     8    14 ar  
    19     8    41 1   
    20     9    10 ar  
    21     9    13 ar  
    22     9    42 1   
    23    10    14 ar  
    24    10    43 1   
    25    11    12 ar  
    26    11    44 1   
    27    12    25 ar  
    28    12    45 1   
    29    13    17 1   
    30    14    24 1   
    31    15    32 1   
    32    15    46 1   
    33    15    47 1   
    34    15    48 1   
    35    16    19 ar  
    36    16    28 ar  
    37    16    49 1   
    38    17    26 1   
    39    17    50 1   
    40    18    25 ar  
    41    18    51 1   
    42    19    31 ar  
    43    19    52 1   
    44    20    37 1   
    45    20    69 2   
    46    23    32 1   
    47    23    55 1   
    48    23    56 1   
    49    23    57 1   
    50    25    26 1   
    51    26    58 1   
    52    27    31 1   
    53    28    29 ar  
    54    28    70 1   
    55    29    30 ar  
    56    29    59 1   
    57    30    31 ar  
    58    30    71 1   
    59    32    60 1   
    60    32    71 1   
    61    33    61 1   
    62    33    62 1   
    63    33    63 1   
    64    33    70 1   
    65    34    35 1   
    66    34    64 1   
    67    34    65 1   
    68    35    36 1   
    69    35    66 1   
    70    35    67 1   
    71    36    37 1   
    72    36    68 1   
    73    37    38 2   
    74    53    69 1   
    75    54    69 1   
@<TRIPOS>SUBSTRUCTURE
     1 M0L         1 TEMP              0 ****  ****    0 ROOT
