@<TRIPOS>MOLECULE
M0M
   43    45     1     0     0
SMALL
No Charge or Current Charge


@<TRIPOS>ATOM
      1 C11          3.1370    -1.1000     0.5680 c6         1 M0M       0.125800
      2 C12          3.7770    -2.4650     0.1740 c6         1 M0M       0.152600
      3 C14          5.5880    -1.3400    -0.9460 c6         1 M0M       0.152600
      4 C02         -2.5630    -0.3190    -1.1080 cs         1 M0M       0.437600
      5 C03         -2.0180     0.7690    -0.3390 cc         1 M0M      -0.167200
      6 C04         -1.8980     0.7070     0.9780 cd         1 M0M       0.288600
      7 C06         -1.0620     2.8500     0.3310 c5         1 M0M       0.641700
      8 C08          1.3790     1.3680    -0.0650 c3         1 M0M       0.074600
      9 C15          4.9900     0.0490    -0.5720 c6         1 M0M       0.125800
     10 C19         -2.7460    -1.5010     1.0560 c          1 M0M       0.606000
     11 N05         -1.3770     1.8810     1.3940 nu         1 M0M      -0.835200
     12 N10          3.5060    -0.0120    -0.3960 n3         1 M0M      -0.711600
     13 N16         -1.5280     1.9880    -0.7800 nu         1 M0M      -0.717200
     14 N17         -2.2320    -0.3730     1.7340 n          1 M0M      -0.293000
     15 N20         -2.9280    -1.4440    -0.3650 n          1 M0M      -0.296400
     16 O13          5.2120    -2.3300     0.0410 os         1 M0M      -0.449000
     17 O22         -3.0290    -2.5140     1.6830 o          1 M0M      -0.539000
     18 S01         -2.7220    -0.2340    -2.7810 s          1 M0M      -0.553400
     19 S07          0.7640     3.0950     0.2460 ss         1 M0M      -0.478000
     20 H112         2.0470    -1.2340     0.6070 h1         1 M0M       0.039700
     21 H111         3.4660    -0.8370     1.5840 h1         1 M0M       0.039700
     22 H122         3.5550    -3.2180     0.9430 h1         1 M0M       0.052700
     23 H121         3.3550    -2.8150    -0.7790 h1         1 M0M       0.052700
     24 H141         5.2210    -1.6540    -1.9340 h1         1 M0M       0.052700
     25 H142         6.6850    -1.2760    -0.9920 h1         1 M0M       0.052700
     26 H061        -1.5780     3.8190     0.4190 h3         1 M0M       0.089700
     27 H081         1.0080     1.0200    -1.0370 h1         1 M0M       0.077700
     28 H082         0.9870     0.7030     0.7120 h1         1 M0M       0.077700
     29 H091         3.2770     2.0580    -0.7900 h1         1 M0M       0.044200
     30 H092         3.2790     1.6430     0.9250 h1         1 M0M       0.044200
     31 H151         5.4700     0.3990     0.3540 h1         1 M0M       0.039700
     32 H152         5.2520     0.7680    -1.3620 h1         1 M0M       0.039700
     33 H181        -2.1570     0.6190     3.6180 h1         1 M0M       0.063700
     34 H183        -2.8340    -1.0180     3.6760 h1         1 M0M       0.063700
     35 H182        -1.0740    -0.7950     3.4580 h1         1 M0M       0.063700
     36 H213        -3.9700    -3.3310    -0.3490 h1         1 M0M       0.071033
     37 H212        -4.2630    -2.3240    -1.7720 h1         1 M0M       0.071033
     38 H211        -2.6980    -3.1650    -1.5880 h1         1 M0M       0.071033
     39 H051        -0.8610     1.8910     2.2660 hn         1 M0M       0.527000
     40 H161        -1.8440     2.3690    -1.6710 hn         1 M0M       0.477000
     41 C09          2.9230     1.3160    -0.0620 c3         1 M0M       0.175800
     42 C18         -2.0630    -0.3930     3.2070 c3         1 M0M       0.076300
     43 C21         -3.4960    -2.6350    -1.0520 c3         1 M0M       0.071300
@<TRIPOS>BOND
     1     1     2 1   
     2     1    12 1   
     3     1    20 1   
     4     1    21 1   
     5     2    16 1   
     6     2    22 1   
     7     2    23 1   
     8     3     9 1   
     9     3    16 1   
    10     3    24 1   
    11     3    25 1   
    12     4     5 1   
    13     4    15 1   
    14     4    18 2   
    15     5     6 2   
    16     5    13 1   
    17     6    11 1   
    18     6    14 1   
    19     7    11 1   
    20     7    13 1   
    21     7    19 1   
    22     7    26 1   
    23     8    19 1   
    24     8    27 1   
    25     8    28 1   
    26     8    41 1   
    27     9    12 1   
    28     9    31 1   
    29     9    32 1   
    30    10    14 1   
    31    10    15 1   
    32    10    17 2   
    33    11    39 1   
    34    12    41 1   
    35    13    40 1   
    36    14    42 1   
    37    15    43 1   
    38    29    41 1   
    39    30    41 1   
    40    33    42 1   
    41    34    42 1   
    42    35    42 1   
    43    36    43 1   
    44    37    43 1   
    45    38    43 1   
@<TRIPOS>SUBSTRUCTURE
     1 M0M         1 TEMP              0 ****  ****    0 ROOT
