@<TRIPOS>MOLECULE
M0M
   43    45     1     0     0
SMALL
abcg2


@<TRIPOS>ATOM
      1 C11          3.3280    -1.0700     0.7560 c6         1 M0M       0.125800
      2 C12          3.8450    -2.4150     0.2820 c6         1 M0M       0.152600
      3 C14          5.3060    -1.3840    -1.1940 c6         1 M0M       0.152600
      4 C02         -2.2860    -0.3390    -1.1760 cs         1 M0M       0.437600
      5 C03         -1.8870     0.7560    -0.4380 cc         1 M0M      -0.167200
      6 C04         -1.9240     0.7470     0.9360 cd         1 M0M       0.288600
      7 C06         -0.9440     2.7080     0.3200 c5         1 M0M       0.641700
      8 C08          1.4270     1.2350     0.1770 c3         1 M0M       0.074600
      9 C15          4.8270    -0.0150    -0.7510 c6         1 M0M       0.125800
     10 C19         -2.8120    -1.4360     0.9690 c          1 M0M       0.606000
     11 N05         -1.4710     1.9070     1.4150 nu         1 M0M      -0.835200
     12 N10          3.4450    -0.0870    -0.3090 n3         1 M0M      -0.711600
     13 N16         -1.3370     1.9800    -0.8630 nu         1 M0M      -0.717200
     14 N17         -2.3470    -0.3120     1.6440 n          1 M0M      -0.293000
     15 N20         -2.7590    -1.4100    -0.4060 n          1 M0M      -0.296400
     16 O13          5.1810    -2.3370    -0.1620 os         1 M0M      -0.449000
     17 O22         -3.2400    -2.3950     1.5790 o          1 M0M      -0.539000
     18 S01         -2.2210    -0.3550    -2.8570 s          1 M0M      -0.553400
     19 S07          0.8750     2.9400     0.4680 ss         1 M0M      -0.478000
     20 H112         2.2820    -1.1930     1.0440 h1         1 M0M       0.039700
     21 H111         3.8780    -0.7530     1.6590 h1         1 M0M       0.039700
     22 H122         3.8120    -3.1350     1.1000 h1         1 M0M       0.052700
     23 H121         3.1950    -2.7870    -0.5230 h1         1 M0M       0.052700
     24 H141         4.7340    -1.6990    -2.0780 h1         1 M0M       0.052700
     25 H142         6.3590    -1.3400    -1.4740 h1         1 M0M       0.052700
     26 H061        -1.3450     3.7220     0.3400 h3         1 M0M       0.089700
     27 H081         0.9890     0.8800    -0.7580 h1         1 M0M       0.077700
     28 H082         1.0770     0.6020     0.9940 h1         1 M0M       0.077700
     29 H091         3.2470     1.9300    -0.7030 h1         1 M0M       0.044200
     30 H092         3.3950     1.5710     1.0160 h1         1 M0M       0.044200
     31 H151         5.4910     0.3680     0.0440 h1         1 M0M       0.039700
     32 H152         4.9020     0.6750    -1.5940 h1         1 M0M       0.039700
     33 H181        -3.0650     0.4900     3.4460 h1         1 M0M       0.063700
     34 H183        -2.6520    -1.2270     3.4900 h1         1 M0M       0.063700
     35 H182        -1.3620    -0.0260     3.4710 h1         1 M0M       0.063700
     36 H213        -2.6790    -3.4880    -0.7220 h1         1 M0M       0.071033
     37 H212        -4.3040    -2.7830    -0.8010 h1         1 M0M       0.071033
     38 H211        -3.1530    -2.5080    -2.1180 h1         1 M0M       0.071033
     39 H051        -1.2790     2.1210     2.3810 hn         1 M0M       0.527000
     40 H161        -1.9200     2.5130    -1.4940 hn         1 M0M       0.477000
     41 C09          2.9460     1.2200     0.0720 c3         1 M0M       0.175800
     42 C18         -2.3580    -0.2610     3.0990 c3         1 M0M       0.076300
     43 C21         -3.2560    -2.6240    -1.0450 c3         1 M0M       0.071300
@<TRIPOS>BOND
     1     1     2 1   
     2     1    12 1   
     3     1    20 1   
     4     1    21 1   
     5     2    16 1   
     6     2    22 1   
     7     2    23 1   
     8     3     9 1   
     9     3    16 1   
    10     3    24 1   
    11     3    25 1   
    12     4     5 1   
    13     4    15 1   
    14     4    18 2   
    15     5     6 2   
    16     5    13 1   
    17     6    11 1   
    18     6    14 1   
    19     7    11 1   
    20     7    13 1   
    21     7    19 1   
    22     7    26 1   
    23     8    19 1   
    24     8    27 1   
    25     8    28 1   
    26     8    41 1   
    27     9    12 1   
    28     9    31 1   
    29     9    32 1   
    30    10    14 1   
    31    10    15 1   
    32    10    17 2   
    33    11    39 1   
    34    12    41 1   
    35    13    40 1   
    36    14    42 1   
    37    15    43 1   
    38    29    41 1   
    39    30    41 1   
    40    33    42 1   
    41    34    42 1   
    42    35    42 1   
    43    36    43 1   
    44    37    43 1   
    45    38    43 1   
@<TRIPOS>SUBSTRUCTURE
     1 M0M         1 TEMP              0 ****  ****    0 ROOT
