@<TRIPOS>MOLECULE
M0N
   28    29     1     0     0
SMALL
No Charge or Current Charge


@<TRIPOS>ATOM
      1 O            2.0780    -0.2170     1.9040 oh         1 M0N      -0.761000
      2 C9           1.6080    -1.2280     0.9010 c3         1 M0N      -0.438000
      3 C8           0.8550    -0.4800    -0.2470 c3         1 M0N       0.020800
      4 C2           1.6690     0.4960    -1.0740 cc         1 M0N       0.034700
      5 C1           2.2960     0.3140    -2.2940 cd         1 M0N      -0.055400
      6 N1           2.8440     1.5010    -2.7860 nd         1 M0N      -0.341600
      7 C7           2.5550     2.4190    -1.8840 cc         1 M0N      -0.180000
      8 C6           2.8370     3.8120    -1.8680 cc         1 M0N      -0.090000
      9 C5           2.3960     4.5570    -0.8010 cd         1 M0N      -0.183000
     10 C4           1.6640     3.9030     0.2580 cd         1 M0N      -0.274000
     11 C3           1.3810     2.5340     0.2590 cc         1 M0N       0.007000
     12 N2           1.8750     1.8360    -0.8520 na         1 M0N       0.132100
     13 P1           0.4350    -2.5080     1.6140 p5         1 M0N       1.338000
     14 O2          -0.8570    -1.8060     1.8840 o          1 M0N      -0.952000
     15 O3           0.1420    -3.6730     0.7290 o          1 M0N      -0.952000
     16 O1           0.9390    -2.9560     2.9480 o          1 M0N      -0.952000
     17 P2           2.9280    -2.3600     0.1780 p5         1 M0N       1.338000
     18 O5           3.3840    -3.4320     1.1110 o          1 M0N      -0.952000
     19 O6           4.1180    -1.5020    -0.1100 o          1 M0N      -0.952000
     20 O4           2.5000    -2.9400    -1.1310 o          1 M0N      -0.952000
     21 HO           2.3320    -0.7210     2.7150 ho         1 M0N       0.465000
     22 H81          0.4190    -1.2220    -0.9270 hc         1 M0N       0.039200
     23 H82         -0.0090     0.0500     0.1700 hc         1 M0N       0.039200
     24 H1           2.3670    -0.6180    -2.8480 h4         1 M0N       0.242000
     25 H6           3.3830     4.2650    -2.6900 ha         1 M0N       0.069000
     26 H5           2.5930     5.6230    -0.7590 ha         1 M0N       0.043000
     27 H4           1.3170     4.5010     1.0940 ha         1 M0N       0.074000
     28 H3           0.8450     1.9890     1.0250 h4         1 M0N       0.192000
@<TRIPOS>BOND
     1     1     2 1   
     2     1    21 1   
     3     2     3 1   
     4     2    13 1   
     5     2    17 1   
     6     3     4 1   
     7     3    22 1   
     8     3    23 1   
     9     4     5 2   
    10     4    12 1   
    11     5     6 1   
    12     5    24 1   
    13     6     7 2   
    14     7     8 1   
    15     7    12 1   
    16     8     9 2   
    17     8    25 1   
    18     9    10 1   
    19     9    26 1   
    20    10    11 2   
    21    10    27 1   
    22    11    12 1   
    23    11    28 1   
    24    13    14 1   
    25    13    15 1   
    26    13    16 1   
    27    17    18 1   
    28    17    19 1   
    29    17    20 1   
@<TRIPOS>SUBSTRUCTURE
     1 M0N         1 TEMP              0 ****  ****    0 ROOT
