@<TRIPOS>MOLECULE
M0N
   28    29     1     0     0
SMALL
abcg2


@<TRIPOS>ATOM
      1 O            2.1610    -0.3180     1.6170 oh         1 M0N      -0.761000
      2 C9           1.6130    -1.2880     0.7070 c3         1 M0N      -0.438000
      3 C8           0.8430    -0.5500    -0.3900 c3         1 M0N       0.020800
      4 C2           1.6230     0.4260    -1.1890 cc         1 M0N       0.034700
      5 C1           2.2710     0.3220    -2.3910 cd         1 M0N      -0.055400
      6 N1           2.8390     1.4900    -2.7840 nd         1 M0N      -0.341600
      7 C7           2.5580     2.3480    -1.8230 cc         1 M0N      -0.180000
      8 C6           2.8620     3.7190    -1.6900 cc         1 M0N      -0.090000
      9 C5           2.4200     4.4020    -0.5940 cd         1 M0N      -0.183000
     10 C4           1.6690     3.7310     0.4070 cd         1 M0N      -0.274000
     11 C3           1.3890     2.4090     0.2860 cc         1 M0N       0.007000
     12 N2           1.8150     1.7320    -0.8200 na         1 M0N       0.132100
     13 P1           0.3990    -2.2620     1.7820 p5         1 M0N       1.338000
     14 O2          -0.9710    -1.5670     1.6620 o          1 M0N      -0.952000
     15 O3           0.3410    -3.7310     1.3660 o          1 M0N      -0.952000
     16 O1           1.0390    -2.0170     3.1810 o          1 M0N      -0.952000
     17 P2           3.0120    -2.2830    -0.0350 p5         1 M0N       1.338000
     18 O5           3.5360    -3.2070     1.0780 o          1 M0N      -0.952000
     19 O6           4.0810    -1.2600    -0.4590 o          1 M0N      -0.952000
     20 O4           2.4050    -3.0350    -1.2350 o          1 M0N      -0.952000
     21 HO           1.9500    -0.7490     2.4800 ho         1 M0N       0.465000
     22 H81          0.4420    -1.2980    -1.0750 hc         1 M0N       0.039200
     23 H82         -0.0240    -0.0470     0.0510 hc         1 M0N       0.039200
     24 H1           2.3610    -0.5820    -2.9740 h4         1 M0N       0.242000
     25 H6           3.4390     4.2000    -2.4680 ha         1 M0N       0.069000
     26 H5           2.6430     5.4540    -0.4810 ha         1 M0N       0.043000
     27 H4           1.3210     4.2620     1.2820 ha         1 M0N       0.074000
     28 H3           0.8580     1.8350     1.0280 h4         1 M0N       0.192000
@<TRIPOS>BOND
     1     1     2 1   
     2     1    21 1   
     3     2     3 1   
     4     2    13 1   
     5     2    17 1   
     6     3     4 1   
     7     3    22 1   
     8     3    23 1   
     9     4     5 2   
    10     4    12 1   
    11     5     6 1   
    12     5    24 1   
    13     6     7 2   
    14     7     8 1   
    15     7    12 1   
    16     8     9 2   
    17     8    25 1   
    18     9    10 1   
    19     9    26 1   
    20    10    11 2   
    21    10    27 1   
    22    11    12 1   
    23    11    28 1   
    24    13    14 1   
    25    13    15 1   
    26    13    16 1   
    27    17    18 1   
    28    17    19 1   
    29    17    20 1   
@<TRIPOS>SUBSTRUCTURE
     1 M0N         1 TEMP              0 ****  ****    0 ROOT
