@<TRIPOS>MOLECULE
M0P
   41    43     1     0     0
SMALL
No Charge or Current Charge


@<TRIPOS>ATOM
      1 C11         -4.5780    -0.8840     0.8240 c6         1 M0P       0.126300
      2 C12         -5.6880    -1.9540     0.5970 c6         1 M0P       0.153100
      3 C14         -6.9850    -0.3950    -0.7010 c6         1 M0P       0.153100
      4 C02          4.3180     0.9960     0.0360 c          1 M0P       0.635600
      5 C03          2.8600     0.9140     0.0080 cc         1 M0P      -0.347600
      6 C04          2.2030    -0.2800    -0.0450 cd         1 M0P       0.451900
      7 C06          0.6960     1.2160    -0.0240 cc         1 M0P       0.561800
      8 C08         -2.0500     0.6530    -0.1050 c3         1 M0P       0.066600
      9 C15         -5.9060     0.7100    -0.4990 c6         1 M0P       0.126300
     10 C19          4.2890    -1.4770    -0.0630 c          1 M0P       0.616000
     11 N05          0.8370    -0.0900    -0.0660 nd         1 M0P      -0.723000
     12 N10         -4.5440     0.1270    -0.2830 n3         1 M0P      -0.718600
     13 N16          1.8750     1.8910     0.0210 na         1 M0P      -0.237500
     14 N17          2.8840    -1.4700    -0.0760 n          1 M0P      -0.360300
     15 N20          4.9640    -0.2460     0.0090 n          1 M0P      -0.372400
     16 O01          4.9090     2.0650     0.0750 o          1 M0P      -0.536000
     17 O13         -6.9740    -1.3160     0.4150 os         1 M0P      -0.448000
     18 O22          4.9060    -2.5330    -0.1140 o          1 M0P      -0.551000
     19 S07         -0.8430     2.0570    -0.0240 ss         1 M0P      -0.344300
     20 H111        -4.7590    -0.3880     1.7890 h1         1 M0P       0.042700
     21 H112        -3.6140    -1.4060     0.9050 h1         1 M0P       0.042700
     22 H121        -5.4520    -2.5560    -0.2920 h1         1 M0P       0.052700
     23 H122        -5.7390    -2.6290     1.4630 h1         1 M0P       0.052700
     24 H141        -7.9810     0.0640    -0.7800 h1         1 M0P       0.052700
     25 H142        -6.7880    -0.9480    -1.6310 h1         1 M0P       0.052700
     26 H082        -1.8920    -0.0000     0.7610 h1         1 M0P       0.088700
     27 H081        -1.8680     0.0720    -1.0180 h1         1 M0P       0.088700
     28 H091        -3.6790     1.7310     0.8180 h1         1 M0P       0.044200
     29 H092        -3.5850     1.9000    -0.9360 h1         1 M0P       0.044200
     30 H151        -5.9060     1.3660    -1.3820 h1         1 M0P       0.042700
     31 H152        -6.1970     1.3310     0.3620 h1         1 M0P       0.042700
     32 H183         2.3350    -3.2310    -1.1220 h1         1 M0P       0.058700
     33 H182         2.5320    -3.4370     0.6420 h1         1 M0P       0.058700
     34 H181         1.0850    -2.6300    -0.0020 h1         1 M0P       0.058700
     35 H212         6.8610     0.6610     0.4510 h1         1 M0P       0.058367
     36 H211         6.8140    -1.0970     0.6520 h1         1 M0P       0.058367
     37 H213         6.8330    -0.3930    -0.9900 h1         1 M0P       0.058367
     38 H161         1.9820     2.8970     0.0570 hn         1 M0P       0.385000
     39 C09         -3.5030     1.1760    -0.1140 c3         1 M0P       0.174800
     40 C18          2.1640    -2.7650    -0.1430 c3         1 M0P       0.102300
     41 C21          6.4520    -0.2670     0.0320 c3         1 M0P       0.085300
@<TRIPOS>BOND
     1     1     2 1   
     2     1    12 1   
     3     1    20 1   
     4     1    21 1   
     5     2    17 1   
     6     2    22 1   
     7     2    23 1   
     8     3     9 1   
     9     3    17 1   
    10     3    24 1   
    11     3    25 1   
    12     4     5 1   
    13     4    15 1   
    14     4    16 2   
    15     5     6 2   
    16     5    13 1   
    17     6    11 1   
    18     6    14 1   
    19     7    11 2   
    20     7    13 1   
    21     7    19 1   
    22     8    19 1   
    23     8    26 1   
    24     8    27 1   
    25     8    39 1   
    26     9    12 1   
    27     9    30 1   
    28     9    31 1   
    29    10    14 1   
    30    10    15 1   
    31    10    18 2   
    32    12    39 1   
    33    13    38 1   
    34    14    40 1   
    35    15    41 1   
    36    28    39 1   
    37    29    39 1   
    38    32    40 1   
    39    33    40 1   
    40    34    40 1   
    41    35    41 1   
    42    36    41 1   
    43    37    41 1   
@<TRIPOS>SUBSTRUCTURE
     1 M0P         1 TEMP              0 ****  ****    0 ROOT
