@<TRIPOS>MOLECULE
M0P
   41    43     1     0     0
SMALL
bcc


@<TRIPOS>ATOM
      1 C11         -4.6150    -0.6200     1.0730 c6         1 M0P       0.126300
      2 C12         -5.5780    -1.7720     0.8600 c6         1 M0P       0.129900
      3 C14         -6.6470    -0.6130    -0.8440 c6         1 M0P       0.129900
      4 C02          4.1950     0.9950     0.1720 c          1 M0P       0.778100
      5 C03          2.7820     0.8930     0.1050 cc         1 M0P      -0.362200
      6 C04          2.1190    -0.2850    -0.0990 cd         1 M0P       0.517200
      7 C06          0.6230     1.1870     0.0790 cc         1 M0P       0.561800
      8 C08         -2.0410     0.6210    -0.0610 c3         1 M0P       0.018700
      9 C15         -5.7100     0.5670    -0.6670 c6         1 M0P       0.126300
     10 C19          4.1600    -1.4650    -0.2190 c          1 M0P       0.825500
     11 N05          0.7850    -0.1110    -0.1170 nd         1 M0P      -0.723000
     12 N10         -4.4240     0.1030    -0.1730 n3         1 M0P      -0.718600
     13 N16          1.7870     1.8390     0.2180 na         1 M0P      -0.237900
     14 N17          2.7890    -1.4610    -0.2630 n          1 M0P      -0.427300
     15 N20          4.8060    -0.2550     0.0100 n          1 M0P      -0.506400
     16 O01          4.8320     2.0200     0.3500 o          1 M0P      -0.611500
     17 O13         -6.8190    -1.3260     0.3610 os         1 M0P      -0.401600
     18 O22          4.7910    -2.4930    -0.3710 o          1 M0P      -0.626500
     19 S07         -0.8970     2.0180     0.1550 ss         1 M0P      -0.296400
     20 H111        -5.0010     0.0410     1.8690 h1         1 M0P       0.042700
     21 H112        -3.6650    -1.0270     1.4240 h1         1 M0P       0.042700
     22 H121        -5.1250    -2.5000     0.1720 h1         1 M0P       0.052700
     23 H122        -5.7690    -2.2780     1.8080 h1         1 M0P       0.052700
     24 H141        -7.6310    -0.2650    -1.1630 h1         1 M0P       0.052700
     25 H142        -6.2490    -1.2730    -1.6270 h1         1 M0P       0.052700
     26 H082        -1.8740    -0.0850     0.7510 h1         1 M0P       0.088700
     27 H081        -1.8280     0.1270    -1.0070 h1         1 M0P       0.088700
     28 H091        -3.6300     1.7930     0.8390 h1         1 M0P       0.044200
     29 H092        -3.5780     1.8380    -0.9200 h1         1 M0P       0.044200
     30 H151        -5.5740     1.0540    -1.6360 h1         1 M0P       0.042700
     31 H152        -6.1680     1.3060     0.0110 h1         1 M0P       0.042700
     32 H183         2.3790    -3.1390    -1.4600 h1         1 M0P       0.058700
     33 H182         2.3070    -3.4310     0.2880 h1         1 M0P       0.058700
     34 H181         1.0250    -2.5150    -0.5100 h1         1 M0P       0.058700
     35 H212         6.6510     0.6510     0.3130 h1         1 M0P       0.058367
     36 H211         6.5830    -1.0400     0.8140 h1         1 M0P       0.058367
     37 H213         6.6680    -0.6260    -0.9060 h1         1 M0P       0.058367
     38 H161         1.9170     2.8270     0.3770 hn         1 M0P       0.334700
     39 C09         -3.4600     1.1760    -0.0590 c3         1 M0P       0.174800
     40 C18          2.0910    -2.7140    -0.5000 c3         1 M0P       0.102300
     41 C21          6.2620    -0.3270     0.0590 c3         1 M0P       0.085300
@<TRIPOS>BOND
     1     1     2 1   
     2     1    12 1   
     3     1    20 1   
     4     1    21 1   
     5     2    17 1   
     6     2    22 1   
     7     2    23 1   
     8     3     9 1   
     9     3    17 1   
    10     3    24 1   
    11     3    25 1   
    12     4     5 1   
    13     4    15 1   
    14     4    16 2   
    15     5     6 2   
    16     5    13 1   
    17     6    11 1   
    18     6    14 1   
    19     7    11 2   
    20     7    13 1   
    21     7    19 1   
    22     8    19 1   
    23     8    26 1   
    24     8    27 1   
    25     8    39 1   
    26     9    12 1   
    27     9    30 1   
    28     9    31 1   
    29    10    14 1   
    30    10    15 1   
    31    10    18 2   
    32    12    39 1   
    33    13    38 1   
    34    14    40 1   
    35    15    41 1   
    36    28    39 1   
    37    29    39 1   
    38    32    40 1   
    39    33    40 1   
    40    34    40 1   
    41    35    41 1   
    42    36    41 1   
    43    37    41 1   
@<TRIPOS>SUBSTRUCTURE
     1 M0P         1 TEMP              0 ****  ****    0 ROOT
