@<TRIPOS>MOLECULE
M0Q
   21    22     1     0     0
SMALL
No Charge or Current Charge


@<TRIPOS>ATOM
      1 C01          3.5530    -1.1090    -0.0030 c3         1 M0Q       0.213100
      2 C03          1.1890    -0.0770     0.0040 ca         1 M0Q       0.407000
      3 C04          1.6840     1.2280    -0.0140 ca         1 M0Q      -0.297000
      4 C05          0.7870     2.2960    -0.0180 ca         1 M0Q       0.411900
      5 C07         -1.0410     0.8710     0.0120 ca         1 M0Q       0.332000
      6 C08         -2.4250     0.6650     0.0250 ca         1 M0Q      -0.144000
      7 C09         -2.9280    -0.6400     0.0430 ca         1 M0Q       0.333900
      8 C11         -0.7960    -1.5350     0.0360 ca         1 M0Q       0.372900
      9 C12         -0.2030    -0.2610     0.0170 ca         1 M0Q      -0.203000
     10 N02          2.0770    -1.1580     0.0090 nu         1 M0Q      -0.963200
     11 N06         -0.5500     2.1270    -0.0060 nb         1 M0Q      -0.708000
     12 N10         -2.1330    -1.7300     0.0480 nb         1 M0Q      -0.677000
     13 H1           3.9150    -0.5950    -0.9030 h1         1 M0Q       0.042367
     14 H2           3.9290    -0.5750     0.8800 h1         1 M0Q       0.042367
     15 H3           3.9710    -2.1250     0.0050 h1         1 M0Q       0.042367
     16 H4           2.7480     1.4330    -0.0240 ha         1 M0Q       0.123000
     17 H5           1.1470     3.3240    -0.0320 h4         1 M0Q       0.013100
     18 H6          -3.1070     1.5080     0.0210 ha         1 M0Q       0.139000
     19 H7          -4.0020    -0.8210     0.0530 h4         1 M0Q       0.020100
     20 H8          -0.1960    -2.4430     0.0410 h4         1 M0Q       0.002100
     21 H9           1.6550    -2.0890     0.0230 hn         1 M0Q       0.497000
@<TRIPOS>BOND
     1     1    10 1   
     2     1    13 1   
     3     1    14 1   
     4     1    15 1   
     5     2     3 ar  
     6     2     9 ar  
     7     2    10 1   
     8     3     4 ar  
     9     3    16 1   
    10     4    11 ar  
    11     4    17 1   
    12     5     6 ar  
    13     5     9 ar  
    14     5    11 ar  
    15     6     7 ar  
    16     6    18 1   
    17     7    12 ar  
    18     7    19 1   
    19     8     9 ar  
    20     8    12 ar  
    21     8    20 1   
    22    10    21 1   
@<TRIPOS>SUBSTRUCTURE
     1 M0Q         1 TEMP              0 ****  ****    0 ROOT
