@<TRIPOS>MOLECULE
M0Q
   21    22     1     0     0
SMALL
abcg2


@<TRIPOS>ATOM
      1 C01          3.5050    -1.0480    -0.0060 c3         1 M0Q       0.213100
      2 C03          1.2360    -0.1250     0.0090 ca         1 M0Q       0.407000
      3 C04          1.6970     1.1890    -0.0060 ca         1 M0Q      -0.297000
      4 C05          0.7820     2.2400    -0.0110 ca         1 M0Q       0.411900
      5 C07         -1.0100     0.8610     0.0120 ca         1 M0Q       0.332000
      6 C08         -2.4070     0.6580     0.0210 ca         1 M0Q      -0.144000
      7 C09         -2.9050    -0.6140     0.0400 ca         1 M0Q       0.333900
      8 C11         -0.8340    -1.5500     0.0430 ca         1 M0Q       0.372900
      9 C12         -0.1920    -0.2950     0.0210 ca         1 M0Q      -0.203000
     10 N02          2.0690    -1.1730     0.0170 nu         1 M0Q      -0.963200
     11 N06         -0.5280     2.1220    -0.0030 nb         1 M0Q      -0.708000
     12 N10         -2.1310    -1.7190     0.0520 nb         1 M0Q      -0.677000
     13 H1           3.8570    -0.5530    -0.9130 h1         1 M0Q       0.042367
     14 H2           3.8720    -0.4860     0.8550 h1         1 M0Q       0.042367
     15 H3           3.9370    -2.0440     0.0300 h1         1 M0Q       0.042367
     16 H4           2.7540     1.4150    -0.0200 ha         1 M0Q       0.123000
     17 H5           1.1700     3.2540    -0.0240 h4         1 M0Q       0.013100
     18 H6          -3.0690     1.5140     0.0140 ha         1 M0Q       0.139000
     19 H7          -3.9750    -0.7820     0.0460 h4         1 M0Q       0.020100
     20 H8          -0.2490    -2.4660     0.0550 h4         1 M0Q       0.002100
     21 H9           1.6950    -2.1040    -0.0140 hn         1 M0Q       0.497000
@<TRIPOS>BOND
     1     1    10 1   
     2     1    13 1   
     3     1    14 1   
     4     1    15 1   
     5     2     3 ar  
     6     2     9 ar  
     7     2    10 1   
     8     3     4 ar  
     9     3    16 1   
    10     4    11 ar  
    11     4    17 1   
    12     5     6 ar  
    13     5     9 ar  
    14     5    11 ar  
    15     6     7 ar  
    16     6    18 1   
    17     7    12 ar  
    18     7    19 1   
    19     8     9 ar  
    20     8    12 ar  
    21     8    20 1   
    22    10    21 1   
@<TRIPOS>SUBSTRUCTURE
     1 M0Q         1 TEMP              0 ****  ****    0 ROOT
