@<TRIPOS>MOLECULE
M0R
   52    55     1     0     0
SMALL
No Charge or Current Charge


@<TRIPOS>ATOM
      1 C12          1.1850   -53.4800    20.9300 ca         1 M0R       0.063000
      2 C13          0.4170   -52.7070    21.8310 ca         1 M0R      -0.167000
      3 C17         -1.5460   -49.0800    20.3450 c3         1 M0R       0.161600
      4 C18         -3.0350   -49.5140    20.3690 c3         1 M0R       0.136600
      5 C20         -4.5650   -51.1380    21.3820 c3         1 M0R       0.167600
      6 C21         -5.3310   -50.2110    22.3750 c3         1 M0R       0.146600
      7 C23         -5.1250   -51.4960    24.4500 c3         1 M0R       0.159600
      8 C10          1.7270   -54.9010    22.6610 ca         1 M0R       0.161900
      9 C14         -0.2440   -51.5400    21.3780 ca         1 M0R      -0.133000
     10 C29          1.2610   -53.0930    19.5820 ca         1 M0R      -0.194000
     11 C30          0.5030   -52.8820    26.3510 ca         1 M0R      -0.082000
     12 C15         -0.1610   -51.1500    20.0220 ca         1 M0R       0.115100
     13 C24         -4.2110   -51.6070    25.6910 c3         1 M0R       0.164600
     14 C26          0.5920   -51.9380    19.1190 ca         1 M0R       0.154100
     15 C28          1.4070   -52.2670    16.8020 c3         1 M0R       0.142900
     16 C02          0.3360   -52.9000    27.7440 ca         1 M0R       0.114000
     17 C03         -0.9090   -52.5890    28.3140 ca         1 M0R      -0.096000
     18 C04         -1.9990   -52.2550    27.4900 ca         1 M0R      -0.153000
     19 C05         -1.8380   -52.2370    26.0860 ca         1 M0R       0.088100
     20 C06         -0.5810   -52.5600    25.5120 ca         1 M0R       0.294000
     21 C08          0.3590   -53.1430    23.1770 ca         1 M0R       0.404900
     22 N07         -0.4470   -52.5030    24.1150 nu         1 M0R      -0.933900
     23 N09          1.0120   -54.2420    23.5910 nb         1 M0R      -0.274000
     24 N11          1.8400   -54.5790    21.3570 nb         1 M0R      -0.208000
     25 O16         -0.7600   -49.9920    19.5410 os         1 M0R      -0.338100
     26 O19         -3.2030   -50.6810    21.2030 os         1 M0R      -0.462000
     27 O22         -4.7620   -50.3140    23.7010 os         1 M0R      -0.439000
     28 O25         -2.8840   -51.9280    25.2300 os         1 M0R      -0.345100
     29 O27          0.6650   -51.5360    17.7940 os         1 M0R      -0.319100
     30 Cl01         1.6960   -53.3040    28.7820 cl         1 M0R      -0.202000
     31 H1          -1.1490   -48.9630    21.3600 h1         1 M0R       0.062200
     32 H2          -1.5120   -48.0860    19.8830 h1         1 M0R       0.062200
     33 H3          -3.6230   -48.6730    20.7540 h1         1 M0R       0.036700
     34 H4          -3.3700   -49.7170    19.3430 h1         1 M0R       0.036700
     35 H5          -5.0940   -51.1480    20.4200 h1         1 M0R       0.044200
     36 H6          -4.5700   -52.1670    21.7600 h1         1 M0R       0.044200
     37 H7          -5.2840   -49.1730    22.0240 h1         1 M0R       0.029200
     38 H8          -6.3910   -50.4970    22.3920 h1         1 M0R       0.029200
     39 H9          -6.1710   -51.4310    24.7760 h1         1 M0R       0.032700
     40 H10         -5.0140   -52.4080    23.8510 h1         1 M0R       0.032700
     41 H11          2.2600   -55.7900    22.9930 h5         1 M0R       0.044100
     42 H12         -0.8050   -50.9380    22.0820 ha         1 M0R       0.139000
     43 H13          1.8520   -53.7040    18.9060 ha         1 M0R       0.140000
     44 H14          1.4770   -53.1010    25.9290 ha         1 M0R       0.151000
     45 H15         -4.2190   -50.6640    26.2520 h1         1 M0R       0.041700
     46 H16         -4.5970   -52.4050    26.3370 h1         1 M0R       0.041700
     47 H17          1.3240   -51.7730    15.8260 h1         1 M0R       0.044367
     48 H18          2.4700   -52.3160    17.0680 h1         1 M0R       0.044367
     49 H19          1.0200   -53.2890    16.6990 h1         1 M0R       0.044367
     50 H20         -1.0280   -52.6040    29.3950 ha         1 M0R       0.129000
     51 H21         -2.9510   -52.0140    27.9540 ha         1 M0R       0.119000
     52 H22         -1.2400   -52.0280    23.6850 hn         1 M0R       0.525000
@<TRIPOS>BOND
     1     1     2 ar  
     2     1    10 ar  
     3     1    24 ar  
     4     2     9 ar  
     5     2    21 ar  
     6     3     4 1   
     7     3    25 1   
     8     3    31 1   
     9     3    32 1   
    10     4    26 1   
    11     4    33 1   
    12     4    34 1   
    13     5     6 1   
    14     5    26 1   
    15     5    35 1   
    16     5    36 1   
    17     6    27 1   
    18     6    37 1   
    19     6    38 1   
    20     7    13 1   
    21     7    27 1   
    22     7    39 1   
    23     7    40 1   
    24     8    23 ar  
    25     8    24 ar  
    26     8    41 1   
    27     9    12 ar  
    28     9    42 1   
    29    10    14 ar  
    30    10    43 1   
    31    11    16 ar  
    32    11    20 ar  
    33    11    44 1   
    34    12    14 ar  
    35    12    25 1   
    36    13    28 1   
    37    13    45 1   
    38    13    46 1   
    39    14    29 1   
    40    15    29 1   
    41    15    47 1   
    42    15    48 1   
    43    15    49 1   
    44    16    17 ar  
    45    16    30 1   
    46    17    18 ar  
    47    17    50 1   
    48    18    19 ar  
    49    18    51 1   
    50    19    20 ar  
    51    19    28 1   
    52    20    22 1   
    53    21    22 1   
    54    21    23 ar  
    55    22    52 1   
@<TRIPOS>SUBSTRUCTURE
     1 M0R         1 TEMP              0 ****  ****    0 ROOT
