@<TRIPOS>MOLECULE
M0R
   52    55     1     0     0
SMALL
bcc


@<TRIPOS>ATOM
      1 C12          1.0990   -53.3950    21.0630 ca         1 M0R       0.456600
      2 C13          0.2760   -52.6110    21.8920 ca         1 M0R      -0.297600
      3 C17         -1.4180   -49.0520    20.0640 c3         1 M0R       0.138400
      4 C18         -2.9150   -49.1410    20.2390 c3         1 M0R       0.113400
      5 C20         -4.4550   -50.7720    21.1050 c3         1 M0R       0.144400
      6 C21         -5.2200   -50.6980    22.4060 c3         1 M0R       0.123400
      7 C23         -5.0720   -51.6280    24.5710 c3         1 M0R       0.136400
      8 C10          1.7340   -54.6560    22.8220 ca         1 M0R       0.687900
      9 C14         -0.4180   -51.5060    21.3460 ca         1 M0R      -0.151000
     10 C29          1.1790   -53.0940    19.6890 ca         1 M0R      -0.277300
     11 C30          0.4760   -52.7020    26.2970 ca         1 M0R      -0.100000
     12 C15         -0.3130   -51.2040    20.0150 ca         1 M0R       0.115100
     13 C24         -4.1140   -51.7220    25.7320 c3         1 M0R       0.141400
     14 C26          0.4930   -52.0300    19.1640 ca         1 M0R       0.154100
     15 C28          1.2860   -52.4250    16.9750 c3         1 M0R       0.119700
     16 C02          0.3600   -52.8130    27.6710 ca         1 M0R       0.022400
     17 C03         -0.8740   -52.7770    28.2970 ca         1 M0R      -0.114000
     18 C04         -2.0150   -52.6470    27.5210 ca         1 M0R      -0.171000
     19 C05         -1.9280   -52.5720    26.1370 ca         1 M0R       0.088100
     20 C06         -0.6680   -52.5780    25.5160 ca         1 M0R       0.155600
     21 C08          0.2210   -53.0190    23.2620 ca         1 M0R       0.733200
     22 N07         -0.6110   -52.3890    24.1330 nu         1 M0R      -0.740300
     23 N09          0.9640   -54.0130    23.7050 nb         1 M0R      -0.800000
     24 N11          1.8340   -54.4320    21.5430 nb         1 M0R      -0.734000
     25 O16         -0.8890   -50.1760    19.3750 os         1 M0R      -0.314900
     26 O19         -3.2240   -50.0960    21.2190 os         1 M0R      -0.415600
     27 O22         -4.3870   -51.1440    23.4480 os         1 M0R      -0.392600
     28 O25         -3.0000   -52.5020    25.3220 os         1 M0R      -0.321900
     29 O27          0.5110   -51.6620    17.8810 os         1 M0R      -0.295900
     30 CL01         1.8000   -52.9830    28.6240 cl         1 M0R      -0.110400
     31 H1          -0.9120   -48.8940    21.0210 h1         1 M0R       0.062200
     32 H2          -1.1990   -48.1880    19.4340 h1         1 M0R       0.062200
     33 H3          -3.2810   -48.1450    20.5240 h1         1 M0R       0.036700
     34 H4          -3.3720   -49.3860    19.2730 h1         1 M0R       0.036700
     35 H5          -5.0820   -50.3530    20.3110 h1         1 M0R       0.044200
     36 H6          -4.2660   -51.8210    20.8510 h1         1 M0R       0.044200
     37 H7          -5.5630   -49.6730    22.6000 h1         1 M0R       0.029200
     38 H8          -6.1160   -51.3250    22.3070 h1         1 M0R       0.029200
     39 H9          -5.8890   -50.9620    24.8780 h1         1 M0R       0.032700
     40 H10         -5.5210   -52.6090    24.3630 h1         1 M0R       0.032700
     41 H11          2.3320   -55.4660    23.2280 h5         1 M0R       0.044100
     42 H12         -1.0450   -50.8910    21.9750 ha         1 M0R       0.157000
     43 H13          1.8090   -53.7240    19.0750 ha         1 M0R       0.158000
     44 H14          1.4520   -52.6930    25.8340 ha         1 M0R       0.169000
     45 H15         -3.7780   -50.7260    26.0390 h1         1 M0R       0.041700
     46 H16         -4.6390   -52.1780    26.5770 h1         1 M0R       0.041700
     47 H17          1.1630   -51.9600    16.0000 h1         1 M0R       0.044367
     48 H18          2.3450   -52.4160    17.2420 h1         1 M0R       0.044367
     49 H19          0.9420   -53.4610    16.9220 h1         1 M0R       0.044367
     50 H20         -0.9550   -52.8550    29.3720 ha         1 M0R       0.147000
     51 H21         -2.9800   -52.6320    28.0120 ha         1 M0R       0.137000
     52 H22         -1.3740   -51.8590    23.7410 hn         1 M0R       0.469800
@<TRIPOS>BOND
     1     1     2 ar  
     2     1    10 ar  
     3     1    24 ar  
     4     2     9 ar  
     5     2    21 ar  
     6     3     4 1   
     7     3    25 1   
     8     3    31 1   
     9     3    32 1   
    10     4    26 1   
    11     4    33 1   
    12     4    34 1   
    13     5     6 1   
    14     5    26 1   
    15     5    35 1   
    16     5    36 1   
    17     6    27 1   
    18     6    37 1   
    19     6    38 1   
    20     7    13 1   
    21     7    27 1   
    22     7    39 1   
    23     7    40 1   
    24     8    23 ar  
    25     8    24 ar  
    26     8    41 1   
    27     9    12 ar  
    28     9    42 1   
    29    10    14 ar  
    30    10    43 1   
    31    11    16 ar  
    32    11    20 ar  
    33    11    44 1   
    34    12    14 ar  
    35    12    25 1   
    36    13    28 1   
    37    13    45 1   
    38    13    46 1   
    39    14    29 1   
    40    15    29 1   
    41    15    47 1   
    42    15    48 1   
    43    15    49 1   
    44    16    17 ar  
    45    16    30 1   
    46    17    18 ar  
    47    17    50 1   
    48    18    19 ar  
    49    18    51 1   
    50    19    20 ar  
    51    19    28 1   
    52    20    22 1   
    53    21    22 1   
    54    21    23 ar  
    55    22    52 1   
@<TRIPOS>SUBSTRUCTURE
     1 M0R         1 TEMP              0 ****  ****    0 ROOT
