@<TRIPOS>MOLECULE
M0S
   40    42     1     0     0
SMALL
No Charge or Current Charge


@<TRIPOS>ATOM
      1 C2           1.7700    -0.2130    -0.0100 cc         1 M0S       0.169500
      2 C4           4.5760     0.0900    -0.1090 c          1 M0S       0.619000
      3 C5           4.9000    -2.3930    -0.1470 c3         1 M0S       0.075300
      4 C6           0.1890     1.2090     0.0550 cd         1 M0S       0.516800
      5 C7          -2.5600     0.5630     0.1350 c3         1 M0S       0.069600
      6 C8          -4.0240     1.0490     0.1780 c3         1 M0S       0.176800
      7 C9          -6.4240     0.4090     0.4050 c5         1 M0S       0.156800
      8 C11         -6.3020    -1.8560    -0.5160 c5         1 M0S      -0.078900
      9 C12         -5.0910    -0.9590    -0.8910 c5         1 M0S       0.156800
     10 O            5.7900     0.2420    -0.1630 o          1 M0S      -0.541000
     11 N            3.7250     1.2140    -0.0540 n          1 M0S      -0.279000
     12 C            4.3200     2.5720    -0.0580 c3         1 M0S       0.083300
     13 C1           2.3630     1.0210    -0.0140 cd         1 M0S       0.011600
     14 N3           1.3390     1.9480     0.0250 na         1 M0S      -0.310500
     15 N2           0.3990    -0.0890     0.0340 nc         1 M0S      -0.582000
     16 C3           2.6070    -1.4020    -0.0520 cs         1 M0S       0.315900
     17 S            1.9350    -2.9480    -0.0490 s          1 M0S      -0.468400
     18 N1           3.9920    -1.2120    -0.0990 n          1 M0S      -0.301400
     19 S1          -1.3850     1.9960     0.1060 ss         1 M0S      -0.364300
     20 N4          -5.0250    -0.0410     0.2670 n3         1 M0S      -0.714600
     21 C10         -7.1810    -0.9440     0.3970 c5         1 M0S      -0.078900
     22 H1           4.7180    -3.0330     0.7250 h1         1 M0S       0.069367
     23 H2           4.7020    -2.9710    -1.0590 h1         1 M0S       0.069367
     24 H3           5.9590    -2.1120    -0.1440 h1         1 M0S       0.069367
     25 H4          -2.3560    -0.0540     1.0190 h1         1 M0S       0.092200
     26 H5          -2.3970    -0.0500    -0.7600 h1         1 M0S       0.092200
     27 H6          -4.1320     1.7100     1.0490 h1         1 M0S       0.039200
     28 H7          -4.2150     1.6600    -0.7150 h1         1 M0S       0.039200
     29 H9          -6.7270     1.0400    -0.4430 h1         1 M0S       0.036950
     30 H10         -6.8390    -2.1990    -1.4080 hc         1 M0S       0.048450
     31 H11         -5.9750    -2.7500     0.0270 hc         1 M0S       0.048450
     32 H12         -4.1730    -1.5480    -1.0220 h1         1 M0S       0.036950
     33 H13         -5.2810    -0.4090    -1.8240 h1         1 M0S       0.036950
     34 H14          5.1290     2.6280     0.6810 h1         1 M0S       0.061033
     35 H15          4.7290     2.7910    -1.0530 h1         1 M0S       0.061033
     36 H16          3.5720     3.3320     0.1940 h1         1 M0S       0.061033
     37 H17          1.4000     2.9560     0.0300 hn         1 M0S       0.373000
     38 H20         -7.2500    -1.3580     1.4090 hc         1 M0S       0.048450
     39 H21         -8.2050    -0.8350     0.0220 hc         1 M0S       0.048450
     40 H8          -6.5970     0.9730     1.3320 h1         1 M0S       0.036950
@<TRIPOS>BOND
     1     1    13 2   
     2     1    15 1   
     3     1    16 1   
     4     2    10 2   
     5     2    11 1   
     6     2    18 1   
     7     3    18 1   
     8     3    22 1   
     9     3    23 1   
    10     3    24 1   
    11     4    14 1   
    12     4    15 2   
    13     4    19 1   
    14     5     6 1   
    15     5    19 1   
    16     5    25 1   
    17     5    26 1   
    18     6    20 1   
    19     6    27 1   
    20     6    28 1   
    21     7    20 1   
    22     7    21 1   
    23     7    29 1   
    24     7    40 1   
    25     8     9 1   
    26     8    21 1   
    27     8    30 1   
    28     8    31 1   
    29     9    20 1   
    30     9    32 1   
    31     9    33 1   
    32    11    12 1   
    33    11    13 1   
    34    12    34 1   
    35    12    35 1   
    36    12    36 1   
    37    13    14 1   
    38    14    37 1   
    39    16    17 2   
    40    16    18 1   
    41    21    38 1   
    42    21    39 1   
@<TRIPOS>SUBSTRUCTURE
     1 M0S         1 TEMP              0 ****  ****    0 ROOT
