@<TRIPOS>MOLECULE
M0S
   40    42     1     0     0
SMALL
abcg2


@<TRIPOS>ATOM
      1 C2           1.7360    -0.2870     0.0470 cc         1 M0S       0.169500
      2 C4           4.4920     0.1050    -0.0900 c          1 M0S       0.619000
      3 C5           4.8320    -2.2920     0.0730 c3         1 M0S       0.075300
      4 C6           0.1380     1.1040     0.0100 cd         1 M0S       0.516800
      5 C7          -2.5060     0.4710     0.1390 c3         1 M0S       0.069600
      6 C8          -3.9380     0.9880     0.1880 c3         1 M0S       0.176800
      7 C9          -6.2200     0.3090     0.6180 c5         1 M0S       0.156800
      8 C11         -6.3130    -1.6680    -0.7700 c5         1 M0S      -0.078900
      9 C12         -5.0320    -0.8520    -0.9800 c5         1 M0S       0.156800
     10 O            5.6930     0.2590    -0.1680 o          1 M0S      -0.541000
     11 N            3.6340     1.1850    -0.1120 n          1 M0S      -0.279000
     12 C            4.1370     2.5450    -0.2400 c3         1 M0S       0.083300
     13 C1           2.3070     0.9560    -0.0510 cd         1 M0S       0.011600
     14 N3           1.2970     1.8460    -0.0750 na         1 M0S      -0.310500
     15 N2           0.3670    -0.1680     0.0830 nc         1 M0S      -0.582000
     16 C3           2.5540    -1.4350     0.0930 cs         1 M0S       0.315900
     17 S            1.9580    -2.9790     0.2110 s          1 M0S      -0.468400
     18 N1           3.9110    -1.1600     0.0280 n          1 M0S      -0.301400
     19 S1          -1.4020     1.9070     0.0040 ss         1 M0S      -0.364300
     20 N4          -4.8740    -0.1060     0.2600 n3         1 M0S      -0.714600
     21 C10         -7.0530    -0.9450     0.3740 c5         1 M0S      -0.078900
     22 H1           4.6670    -2.8640     0.9840 h1         1 M0S       0.069367
     23 H2           4.6610    -2.9470    -0.7790 h1         1 M0S       0.069367
     24 H3           5.8510    -1.9310     0.0520 h1         1 M0S       0.069367
     25 H4          -2.2660    -0.0810     1.0470 h1         1 M0S       0.092200
     26 H5          -2.3380    -0.1770    -0.7210 h1         1 M0S       0.092200
     27 H6          -4.0600     1.6090     1.0790 h1         1 M0S       0.039200
     28 H7          -4.1330     1.6370    -0.6840 h1         1 M0S       0.039200
     29 H9          -6.5760     1.1350    -0.0220 h1         1 M0S       0.036950
     30 H10         -6.9030    -1.7020    -1.6860 hc         1 M0S       0.048450
     31 H11         -6.0850    -2.6980    -0.4980 hc         1 M0S       0.048450
     32 H12         -4.1630    -1.4810    -1.1820 h1         1 M0S       0.036950
     33 H13         -5.1470    -0.1700    -1.8390 h1         1 M0S       0.036950
     34 H14          5.2150     2.5440    -0.1440 h1         1 M0S       0.061033
     35 H15          3.8660     2.9570    -1.2120 h1         1 M0S       0.061033
     36 H16          3.7190     3.1660     0.5490 h1         1 M0S       0.061033
     37 H17          1.3660     2.8530    -0.1310 hn         1 M0S       0.373000
     38 H20         -7.0730    -1.5650     1.2710 hc         1 M0S       0.048450
     39 H21         -8.0850    -0.7020     0.1240 hc         1 M0S       0.048450
     40 H8          -6.2580     0.6590     1.6520 h1         1 M0S       0.036950
@<TRIPOS>BOND
     1     1    13 2   
     2     1    15 1   
     3     1    16 1   
     4     2    10 2   
     5     2    11 1   
     6     2    18 1   
     7     3    18 1   
     8     3    22 1   
     9     3    23 1   
    10     3    24 1   
    11     4    14 1   
    12     4    15 2   
    13     4    19 1   
    14     5     6 1   
    15     5    19 1   
    16     5    25 1   
    17     5    26 1   
    18     6    20 1   
    19     6    27 1   
    20     6    28 1   
    21     7    20 1   
    22     7    21 1   
    23     7    29 1   
    24     7    40 1   
    25     8     9 1   
    26     8    21 1   
    27     8    30 1   
    28     8    31 1   
    29     9    20 1   
    30     9    32 1   
    31     9    33 1   
    32    11    12 1   
    33    11    13 1   
    34    12    34 1   
    35    12    35 1   
    36    12    36 1   
    37    13    14 1   
    38    14    37 1   
    39    16    17 2   
    40    16    18 1   
    41    21    38 1   
    42    21    39 1   
@<TRIPOS>SUBSTRUCTURE
     1 M0S         1 TEMP              0 ****  ****    0 ROOT
