@<TRIPOS>MOLECULE
M0T
   54    57     1     0     0
SMALL
No Charge or Current Charge


@<TRIPOS>ATOM
      1 N1           4.2730    -0.5480     0.0380 ns         1 M0T      -0.503900
      2 N3          -1.2900    -3.0130    -1.1400 nc         1 M0T      -0.563100
      3 C4           3.4320    -1.3580    -0.6930 c          1 M0T       0.614700
      4 C5           1.9900    -1.4100    -0.2430 ca         1 M0T      -0.178600
      5 C6           1.5140    -0.6690     0.8780 ca         1 M0T      -0.075000
      6 C7           0.1620    -0.7440     1.2670 ca         1 M0T      -0.126000
      7 C8          -0.6960    -1.5670     0.5250 ca         1 M0T      -0.065200
      8 C20          6.0660     1.1110    -0.0740 ca         1 M0T      -0.097300
      9 C21          6.4820     1.8440    -1.2050 ca         1 M0T      -0.096000
     10 C22          6.8130     3.2050    -1.0890 ca         1 M0T      -0.110000
     11 C24          6.3110     3.1270     1.2880 ca         1 M0T      -0.110000
     12 O1           3.8340    -1.9970    -1.6560 o          1 M0T      -0.593100
     13 C2           6.5680    -1.2690     0.7020 c3         1 M0T      -0.088400
     14 N2          -2.0340    -1.8150     0.6860 na         1 M0T      -0.187600
     15 C3           5.7040    -0.3660    -0.2140 c3         1 M0T       0.162000
     16 C9          -2.9250    -1.1930     1.6810 c3         1 M0T       0.126900
     17 C16         -2.3430    -2.6940    -0.3630 cd         1 M0T       0.429800
     18 C18         -0.2640    -2.2850    -0.5560 ca         1 M0T       0.060400
     19 C19          1.0780    -2.2260    -0.9620 ca         1 M0T       0.013000
     20 C23          6.7290     3.8470     0.1570 ca         1 M0T      -0.107000
     21 C25          5.9800     1.7660     1.1740 ca         1 M0T      -0.096000
     22 C10         -3.8180    -0.1070     1.0900 ca         1 M0T      -0.107300
     23 C13         -5.4800     1.8940    -0.0100 ca         1 M0T       0.122000
     24 C15         -5.2070    -0.1220     1.3330 ca         1 M0T      -0.094000
     25 Cl1         -6.4930     3.1560    -0.7130 cl         1 M0T      -0.164000
     26 C11         -3.2680     0.9210     0.2960 ca         1 M0T      -0.084000
     27 C12         -4.0970     1.9150    -0.2510 ca         1 M0T      -0.094000
     28 C14         -6.0370     0.8710     0.7850 ca         1 M0T       0.118000
     29 HN1          3.8610    -0.0400     0.8060 hn         1 M0T       0.311500
     30 H6           2.1770    -0.0310     1.4560 ha         1 M0T       0.112000
     31 H7          -0.1950    -0.1750     2.1220 ha         1 M0T       0.120000
     32 H17         -4.1140    -3.7500     0.2490 hc         1 M0T       0.061700
     33 H17A        -4.4110    -2.4160    -0.8810 hc         1 M0T       0.061700
     34 H17B        -3.7200    -3.9380    -1.4680 hc         1 M0T       0.061700
     35 H21          6.5500     1.3600    -2.1770 ha         1 M0T       0.109000
     36 H22          7.1340     3.7630    -1.9670 ha         1 M0T       0.111500
     37 H24          6.2430     3.6230     2.2540 ha         1 M0T       0.111500
     38 H1           5.3490    -3.0900     0.7350 hc         1 M0T       0.035367
     39 H1A          6.5620    -3.0500    -0.5680 hc         1 M0T       0.035367
     40 H1B          7.0630    -3.3550     1.1090 hc         1 M0T       0.035367
     41 H2           6.3610    -1.0380     1.7540 hc         1 M0T       0.048700
     42 H2A          7.6240    -1.0300     0.5300 hc         1 M0T       0.048700
     43 H3           5.9110    -0.6620    -1.2520 h1         1 M0T       0.077700
     44 H9          -3.5460    -1.9830     2.1230 h1         1 M0T       0.070700
     45 H9A         -2.3270    -0.7650     2.4940 h1         1 M0T       0.070700
     46 H19          1.4010    -2.8050    -1.8240 ha         1 M0T       0.153000
     47 H23          6.9850     4.9010     0.2460 ha         1 M0T       0.112000
     48 H25          5.6540     1.2230     2.0580 ha         1 M0T       0.109000
     49 H15         -5.6480    -0.9060     1.9440 ha         1 M0T       0.131000
     50 H11         -2.1970     0.9510     0.1020 ha         1 M0T       0.135000
     51 H12         -3.6660     2.7040    -0.8630 ha         1 M0T       0.137000
     52 C17         -3.7210    -3.2300    -0.6310 c3         1 M0T      -0.116400
     53 C1           6.3700    -2.7840     0.4790 c3         1 M0T      -0.088100
     54 Cl2         -7.7700     0.8120     1.1100 cl         1 M0T      -0.166000
@<TRIPOS>BOND
     1     1     3 1   
     2     1    15 1   
     3     1    29 1   
     4     2    17 2   
     5     2    18 1   
     6     3     4 1   
     7     3    12 2   
     8     4     5 ar  
     9     4    19 ar  
    10     5     6 ar  
    11     5    30 1   
    12     6     7 ar  
    13     6    31 1   
    14     7    14 1   
    15     7    18 ar  
    16     8     9 ar  
    17     8    15 1   
    18     8    21 ar  
    19     9    10 ar  
    20     9    35 1   
    21    10    20 ar  
    22    10    36 1   
    23    11    20 ar  
    24    11    21 ar  
    25    11    37 1   
    26    13    15 1   
    27    13    41 1   
    28    13    42 1   
    29    13    53 1   
    30    14    16 1   
    31    14    17 1   
    32    15    43 1   
    33    16    22 1   
    34    16    44 1   
    35    16    45 1   
    36    17    52 1   
    37    18    19 ar  
    38    19    46 1   
    39    20    47 1   
    40    21    48 1   
    41    22    24 ar  
    42    22    26 ar  
    43    23    25 1   
    44    23    27 ar  
    45    23    28 ar  
    46    24    28 ar  
    47    24    49 1   
    48    26    27 ar  
    49    26    50 1   
    50    27    51 1   
    51    28    54 1   
    52    32    52 1   
    53    33    52 1   
    54    34    52 1   
    55    38    53 1   
    56    39    53 1   
    57    40    53 1   
@<TRIPOS>SUBSTRUCTURE
     1 M0T         1 TEMP              0 ****  ****    0 ROOT
