@<TRIPOS>MOLECULE
M0T
   54    57     1     0     0
SMALL
abcg2


@<TRIPOS>ATOM
      1 N1           4.2090    -0.6750     0.4190 ns         1 M0T      -0.503900
      2 N3          -1.2290    -1.3240    -2.1980 nc         1 M0T      -0.563100
      3 C4           3.4800    -1.1070    -0.6280 c          1 M0T       0.614700
      4 C5           2.0150    -1.2640    -0.3920 ca         1 M0T      -0.178600
      5 C6           1.4930    -1.5200     0.8900 ca         1 M0T      -0.075000
      6 C7           0.1390    -1.6970     1.1050 ca         1 M0T      -0.126000
      7 C8          -0.6880    -1.6080    -0.0060 ca         1 M0T      -0.065200
      8 C20          6.0340     0.7350    -0.4490 ca         1 M0T      -0.097300
      9 C21          7.1420     0.6930    -1.2890 ca         1 M0T      -0.096000
     10 C22          7.5530     1.8240    -1.9810 ca         1 M0T      -0.110000
     11 C24          5.7470     3.0670    -1.0050 ca         1 M0T      -0.110000
     12 O1           3.9850    -1.3630    -1.7120 o          1 M0T      -0.593100
     13 C2           6.2210    -0.4340     1.7600 c3         1 M0T      -0.088400
     14 N2          -2.0430    -1.7340    -0.1670 na         1 M0T      -0.187600
     15 C3           5.6440    -0.4930     0.3440 c3         1 M0T       0.162000
     16 C9          -3.0130    -1.9720     0.8720 c3         1 M0T       0.126900
     17 C16         -2.3060    -1.5490    -1.4990 cd         1 M0T       0.429800
     18 C18         -0.1920    -1.3550    -1.2950 ca         1 M0T       0.060400
     19 C19          1.1720    -1.1930    -1.4940 ca         1 M0T       0.013000
     20 C23          6.8540     3.0160    -1.8430 ca         1 M0T      -0.107000
     21 C25          5.3410     1.9340    -0.3130 ca         1 M0T      -0.096000
     22 C10         -3.7790    -0.7350     1.2710 ca         1 M0T      -0.107300
     23 C13         -5.2350     1.5010     2.0840 ca         1 M0T       0.122000
     24 C15         -5.0620    -0.8790     1.7830 ca         1 M0T      -0.094000
     25 CL1         -6.1250     2.8910     2.5720 cl         1 M0T      -0.164000
     26 C11         -3.2320     0.5390     1.1700 ca         1 M0T      -0.084000
     27 C12         -3.9560     1.6490     1.5710 ca         1 M0T      -0.094000
     28 C14         -5.7870     0.2290     2.1910 ca         1 M0T       0.118000
     29 HN1          3.7340    -0.3210     1.2340 hn         1 M0T       0.311500
     30 H6           2.1560    -1.6190     1.7390 ha         1 M0T       0.112000
     31 H7          -0.2410    -1.9070     2.0960 ha         1 M0T       0.120000
     32 H17         -4.1630    -2.5630    -1.7990 hc         1 M0T       0.061700
     33 H17A        -4.3110    -0.8190    -1.6220 hc         1 M0T       0.061700
     34 H17B        -3.6620    -1.4990    -3.1170 hc         1 M0T       0.061700
     35 H21          7.6880    -0.2370    -1.4050 ha         1 M0T       0.109000
     36 H22          8.4140     1.7730    -2.6350 ha         1 M0T       0.111500
     37 H24          5.1960     3.9930    -0.8900 ha         1 M0T       0.111500
     38 H1           4.9520    -1.9300     2.7150 hc         1 M0T       0.035367
     39 H1A          6.4480    -2.5710     2.0420 hc         1 M0T       0.035367
     40 H1B          6.4790    -1.6380     3.5360 hc         1 M0T       0.035367
     41 H2           5.7870     0.4210     2.2890 hc         1 M0T       0.048700
     42 H2A          7.2890    -0.2260     1.6750 hc         1 M0T       0.048700
     43 H3           6.0650    -1.3690    -0.1590 h1         1 M0T       0.077700
     44 H9          -3.7030    -2.7530     0.5500 h1         1 M0T       0.070700
     45 H9A         -2.4850    -2.3760     1.7370 h1         1 M0T       0.070700
     46 H19          1.5670    -1.0080    -2.4850 ha         1 M0T       0.153000
     47 H23          7.1680     3.8980    -2.3860 ha         1 M0T       0.112000
     48 H25          4.4740     1.9890     0.3340 ha         1 M0T       0.109000
     49 H15         -5.5070    -1.8630     1.8660 ha         1 M0T       0.131000
     50 H11         -2.2350     0.6880     0.7750 ha         1 M0T       0.135000
     51 H12         -3.5250     2.6370     1.4840 ha         1 M0T       0.137000
     52 C17         -3.6860    -1.6110    -2.0370 c3         1 M0T      -0.116400
     53 C1           6.0090    -1.7140     2.5550 c3         1 M0T      -0.088100
     54 CL2         -7.3750     0.0130     2.8190 cl         1 M0T      -0.166000
@<TRIPOS>BOND
     1     1     3 1   
     2     1    15 1   
     3     1    29 1   
     4     2    17 2   
     5     2    18 1   
     6     3     4 1   
     7     3    12 2   
     8     4     5 ar  
     9     4    19 ar  
    10     5     6 ar  
    11     5    30 1   
    12     6     7 ar  
    13     6    31 1   
    14     7    14 1   
    15     7    18 ar  
    16     8     9 ar  
    17     8    15 1   
    18     8    21 ar  
    19     9    10 ar  
    20     9    35 1   
    21    10    20 ar  
    22    10    36 1   
    23    11    20 ar  
    24    11    21 ar  
    25    11    37 1   
    26    13    15 1   
    27    13    41 1   
    28    13    42 1   
    29    13    53 1   
    30    14    16 1   
    31    14    17 1   
    32    15    43 1   
    33    16    22 1   
    34    16    44 1   
    35    16    45 1   
    36    17    52 1   
    37    18    19 ar  
    38    19    46 1   
    39    20    47 1   
    40    21    48 1   
    41    22    24 ar  
    42    22    26 ar  
    43    23    25 1   
    44    23    27 ar  
    45    23    28 ar  
    46    24    28 ar  
    47    24    49 1   
    48    26    27 ar  
    49    26    50 1   
    50    27    51 1   
    51    28    54 1   
    52    32    52 1   
    53    33    52 1   
    54    34    52 1   
    55    38    53 1   
    56    39    53 1   
    57    40    53 1   
@<TRIPOS>SUBSTRUCTURE
     1 M0T         1 TEMP              0 ****  ****    0 ROOT
