@<TRIPOS>MOLECULE
M0U
   73    76     1     0     0
SMALL
No Charge or Current Charge


@<TRIPOS>ATOM
      1 CBF        -22.8270    22.7600    -6.7040 c6         1 M0U      -0.069400
      2 CBG        -23.5040    22.5220    -5.3300 c6         1 M0U      -0.073400
      3 CBH        -23.4390    21.0300    -4.9250 c6         1 M0U      -0.074400
      4 CBI        -24.0610    20.1290    -6.0190 c6         1 M0U      -0.073400
      5 CBJ        -23.3860    20.3660    -7.3940 c6         1 M0U      -0.069400
      6 CBE        -23.4500    21.8650    -7.8130 c6         1 M0U      -0.060700
      7 CBD        -22.7630    22.1270    -9.1870 c3         1 M0U       0.161800
      8 NBC        -23.4300    21.4270   -10.2990 n7         1 M0U      -0.861400
      9 CBB        -22.8240    21.6340   -11.6250 c3         1 M0U       0.205100
     10 CAZ        -23.6140    20.8970   -12.6980 ca         1 M0U      -0.072300
     11 CBA        -23.4210    19.5170   -12.8970 ca         1 M0U      -0.101000
     12 CAW        -24.1370    18.8370   -13.8970 ca         1 M0U      -0.072000
     13 CAY        -24.5330    21.5880   -13.5100 ca         1 M0U      -0.101000
     14 CAX        -25.2480    20.9070   -14.5110 ca         1 M0U      -0.072000
     15 CAV        -25.0630    19.5250   -14.7060 ca         1 M0U      -0.036000
     16 CAP        -25.7340    18.8270   -15.8050 cc         1 M0U      -0.040000
     17 CAO        -27.0900    18.6980   -16.0220 cd         1 M0U       0.137500
     18 CAQ        -28.1800    19.2580   -15.1480 c          1 M0U       0.542600
     19 OAR        -28.0220    19.8830   -14.1070 o          1 M0U      -0.602100
     20 NAS        -29.4410    18.9780   -15.6400 ns         1 M0U      -0.494900
     21 CAT        -30.6990    19.4140   -15.0300 c3         1 M0U       0.106000
     22 CAU        -31.0070    20.8910   -15.3310 c3         1 M0U      -0.116100
     23 NAN        -27.2620    17.9310   -17.1810 nd         1 M0U      -0.347000
     24 NAM        -26.0990    17.5670   -17.6640 nc         1 M0U      -0.223800
     25 NAL        -25.1820    18.0750   -16.8050 na         1 M0U       0.232000
     26 CAC        -23.8090    17.9230   -17.0350 ca         1 M0U      -0.154200
     27 CAD        -22.9750    19.0600   -17.0000 ca         1 M0U      -0.015000
     28 CAE        -21.5760    18.9520   -17.1440 ca         1 M0U      -0.194300
     29 CAI        -20.7200    20.2260   -17.0340 c3         1 M0U      -0.006400
     30 CAK        -20.8860    20.8930   -15.6490 c3         1 M0U      -0.090600
     31 CAJ        -21.0330    21.2130   -18.1810 c3         1 M0U      -0.090600
     32 CAF        -21.0190    17.6700   -17.3600 ca         1 M0U       0.198100
     33 OAH        -19.6770    17.4920   -17.5150 oh         1 M0U      -0.529100
     34 CAB        -21.8440    16.5410   -17.4190 ca         1 M0U      -0.194000
     35 CAA        -23.2290    16.6560   -17.2550 ca         1 M0U       0.215100
     36 OAG        -23.9850    15.5200   -17.3010 oh         1 M0U      -0.527100
     37 H1         -21.7500    22.5560    -6.6220 hc         1 M0U       0.041700
     38 H2         -22.9230    23.8190    -6.9790 hc         1 M0U       0.041700
     39 H3         -23.0150    23.1380    -4.5630 hc         1 M0U       0.037950
     40 H4         -24.5520    22.8500    -5.3730 hc         1 M0U       0.037950
     41 H5         -23.9660    20.8790    -3.9730 hc         1 M0U       0.037700
     42 H6         -22.3940    20.7380    -4.7540 hc         1 M0U       0.037700
     43 H7         -25.1380    20.3300    -6.0960 hc         1 M0U       0.037950
     44 H8         -23.9610    19.0730    -5.7320 hc         1 M0U       0.037950
     45 H9         -23.8780    19.7380    -8.1490 hc         1 M0U       0.041700
     46 H10        -22.3390    20.0360    -7.3510 hc         1 M0U       0.041700
     47 H11        -24.5050    22.1520    -7.9320 hc         1 M0U       0.044700
     48 H12        -21.7120    21.8150    -9.1160 h1         1 M0U       0.028200
     49 H13        -22.7720    23.2100    -9.3740 h1         1 M0U       0.028200
     50 H14        -24.4030    21.7510   -10.3470 hn         1 M0U       0.415000
     51 H16        -21.7860    21.2720   -11.6320 h1         1 M0U       0.035200
     52 H17        -22.7960    22.7050   -11.8700 h1         1 M0U       0.035200
     53 H18        -22.7110    18.9730   -12.2790 ha         1 M0U       0.121500
     54 H19        -23.9660    17.7740   -14.0490 ha         1 M0U       0.122500
     55 H20        -24.6880    22.6560   -13.3730 ha         1 M0U       0.121500
     56 H21        -25.9370    21.4590   -15.1460 ha         1 M0U       0.122500
     57 H22        -29.4750    18.4470   -16.5040 hn         1 M0U       0.334500
     58 H23        -31.5120    18.7870   -15.4200 h1         1 M0U       0.052200
     59 H24        -30.6460    19.2610   -13.9440 h1         1 M0U       0.052200
     60 H25        -31.9620    21.1800   -14.8760 hc         1 M0U       0.041367
     61 H26        -30.2240    21.5440   -14.9260 hc         1 M0U       0.041367
     62 H27        -31.0750    21.0600   -16.4120 hc         1 M0U       0.041367
     63 H28        -23.4200    20.0400   -16.8420 ha         1 M0U       0.130000
     64 H29        -19.6560    19.9830   -17.1250 hc         1 M0U       0.038700
     65 H30        -20.6590    20.1790   -14.8480 hc         1 M0U       0.039367
     66 H31        -20.2030    21.7450   -15.5460 hc         1 M0U       0.039367
     67 H32        -21.9080    21.2600   -15.4980 hc         1 M0U       0.039367
     68 H33        -20.3650    22.0810   -18.1360 hc         1 M0U       0.039367
     69 H34        -20.8940    20.7270   -19.1540 hc         1 M0U       0.039367
     70 H35        -22.0660    21.5760   -18.1240 hc         1 M0U       0.039367
     71 H36        -19.2490    18.3700   -17.4620 ho         1 M0U       0.475000
     72 H37        -21.4040    15.5620   -17.5840 ha         1 M0U       0.152000
     73 H38        -24.9290    15.7900   -17.3390 ho         1 M0U       0.497000
@<TRIPOS>BOND
     1     1     2 1   
     2     1     6 1   
     3     1    37 1   
     4     1    38 1   
     5     2     3 1   
     6     2    39 1   
     7     2    40 1   
     8     3     4 1   
     9     3    41 1   
    10     3    42 1   
    11     4     5 1   
    12     4    43 1   
    13     4    44 1   
    14     5     6 1   
    15     5    45 1   
    16     5    46 1   
    17     6     7 1   
    18     6    47 1   
    19     7     8 1   
    20     7    48 1   
    21     7    49 1   
    22     8     9 1   
    23     8    50 1   
    24     9    10 1   
    25     9    51 1   
    26     9    52 1   
    27    10    11 ar  
    28    10    13 ar  
    29    11    12 ar  
    30    11    53 1   
    31    12    15 ar  
    32    12    54 1   
    33    13    14 ar  
    34    13    55 1   
    35    14    15 ar  
    36    14    56 1   
    37    15    16 1   
    38    16    17 2   
    39    16    25 1   
    40    17    18 1   
    41    17    23 1   
    42    18    19 2   
    43    18    20 1   
    44    20    21 1   
    45    20    57 1   
    46    21    22 1   
    47    21    58 1   
    48    21    59 1   
    49    22    60 1   
    50    22    61 1   
    51    22    62 1   
    52    23    24 2   
    53    24    25 1   
    54    25    26 1   
    55    26    27 ar  
    56    26    35 ar  
    57    27    28 ar  
    58    27    63 1   
    59    28    29 1   
    60    28    32 ar  
    61    29    30 1   
    62    29    31 1   
    63    29    64 1   
    64    30    65 1   
    65    30    66 1   
    66    30    67 1   
    67    31    68 1   
    68    31    69 1   
    69    31    70 1   
    70    32    33 1   
    71    32    34 ar  
    72    33    71 1   
    73    34    35 ar  
    74    34    72 1   
    75    35    36 1   
    76    36    73 1   
@<TRIPOS>SUBSTRUCTURE
     1 M0U         1 TEMP              0 ****  ****    0 ROOT
