@<TRIPOS>MOLECULE
M0U
   73    76     1     0     0
SMALL
abcg2


@<TRIPOS>ATOM
      1 CBF        -22.6370    22.5670    -6.6760 c6         1 M0U      -0.069400
      2 CBG        -23.1340    22.1960    -5.2820 c6         1 M0U      -0.073400
      3 CBH        -23.0090    20.6980    -5.0260 c6         1 M0U      -0.074400
      4 CBI        -23.7180    19.8960    -6.1120 c6         1 M0U      -0.073400
      5 CBJ        -23.2160    20.2730    -7.5030 c6         1 M0U      -0.069400
      6 CBE        -23.3510    21.7710    -7.7680 c6         1 M0U      -0.060700
      7 CBD        -22.8320    22.1720    -9.1430 c3         1 M0U       0.161800
      8 NBC        -23.5390    21.5000   -10.2170 n7         1 M0U      -0.861400
      9 CBB        -23.0950    21.9180   -11.5330 c3         1 M0U       0.205100
     10 CAZ        -23.8170    21.1530   -12.6070 ca         1 M0U      -0.072300
     11 CBA        -23.7030    19.7650   -12.6780 ca         1 M0U      -0.101000
     12 CAW        -24.3670    19.0480   -13.6570 ca         1 M0U      -0.072000
     13 CAY        -24.6260    21.8010   -13.5340 ca         1 M0U      -0.101000
     14 CAX        -25.3060    21.0880   -14.5120 ca         1 M0U      -0.072000
     15 CAV        -25.1790    19.7070   -14.5800 ca         1 M0U      -0.036000
     16 CAP        -25.8590    18.9440   -15.6290 cc         1 M0U      -0.040000
     17 CAO        -27.1870    18.7380   -15.9430 cd         1 M0U       0.137500
     18 CAQ        -28.3890    19.2690   -15.2640 c          1 M0U       0.542600
     19 OAR        -28.2960    19.9550   -14.2560 o          1 M0U      -0.602100
     20 NAS        -29.5490    18.9200   -15.8370 ns         1 M0U      -0.494900
     21 CAT        -30.8380    19.3720   -15.3590 c3         1 M0U       0.106000
     22 CAU        -31.2240    20.7470   -15.8840 c3         1 M0U      -0.116100
     23 NAN        -27.2510    17.8890   -16.9880 nd         1 M0U      -0.347000
     24 NAM        -26.0670    17.5740   -17.3550 nc         1 M0U      -0.223800
     25 NAL        -25.2080    18.2000   -16.5500 na         1 M0U       0.232000
     26 CAC        -23.8150    18.0300   -16.7390 ca         1 M0U      -0.154200
     27 CAD        -22.9840    19.1410   -16.7550 ca         1 M0U      -0.015000
     28 CAE        -21.6080    19.0400   -16.8600 ca         1 M0U      -0.194300
     29 CAI        -20.7270    20.2730   -16.8880 c3         1 M0U      -0.006400
     30 CAK        -21.3350    21.4590   -16.1450 c3         1 M0U      -0.090600
     31 CAJ        -20.3870    20.6660   -18.3290 c3         1 M0U      -0.090600
     32 CAF        -21.0750    17.7450   -16.9850 ca         1 M0U       0.198100
     33 OAH        -19.7590    17.5000   -17.1090 oh         1 M0U      -0.529100
     34 CAB        -21.9000    16.6270   -17.0020 ca         1 M0U      -0.194000
     35 CAA        -23.2770    16.7480   -16.8810 ca         1 M0U       0.215100
     36 OAG        -24.0090    15.6240   -16.8880 oh         1 M0U      -0.527100
     37 H1         -21.5600    22.3750    -6.7410 hc         1 M0U       0.041700
     38 H2         -22.7710    23.6400    -6.8470 hc         1 M0U       0.041700
     39 H3         -22.5820    22.7580    -4.5250 hc         1 M0U       0.037950
     40 H4         -24.1840    22.4940    -5.1840 hc         1 M0U       0.037950
     41 H5         -23.4140    20.4470    -4.0420 hc         1 M0U       0.037700
     42 H6         -21.9490    20.4220    -5.0060 hc         1 M0U       0.037700
     43 H7         -24.7960    20.0820    -6.0540 hc         1 M0U       0.037950
     44 H8         -23.5810    18.8250    -5.9430 hc         1 M0U       0.037950
     45 H9         -23.7550    19.7050    -8.2640 hc         1 M0U       0.041700
     46 H10        -22.1600    19.9910    -7.5970 hc         1 M0U       0.041700
     47 H11        -24.4190    22.0300    -7.7210 hc         1 M0U       0.044700
     48 H12        -21.7710    21.9090    -9.2190 h1         1 M0U       0.028200
     49 H13        -22.8830    23.2700    -9.2360 h1         1 M0U       0.028200
     50 H14        -24.5310    21.6930   -10.1300 hn         1 M0U       0.415000
     51 H16        -22.0220    21.7160   -11.6050 h1         1 M0U       0.035200
     52 H17        -23.2160    22.9980   -11.7060 h1         1 M0U       0.035200
     53 H18        -23.0870    19.2410   -11.9580 ha         1 M0U       0.121500
     54 H19        -24.2630    17.9710   -13.7000 ha         1 M0U       0.122500
     55 H20        -24.7290    22.8780   -13.4930 ha         1 M0U       0.121500
     56 H21        -25.9260    21.6110   -15.2280 ha         1 M0U       0.122500
     57 H22        -29.5180    18.3850   -16.6910 hn         1 M0U       0.334500
     58 H23        -31.5740    18.6310   -15.6710 h1         1 M0U       0.052200
     59 H24        -30.8320    19.3700   -14.2690 h1         1 M0U       0.052200
     60 H25        -32.2120    21.0260   -15.5170 hc         1 M0U       0.041367
     61 H26        -30.5160    21.5070   -15.5550 hc         1 M0U       0.041367
     62 H27        -31.2540    20.7560   -16.9730 hc         1 M0U       0.041367
     63 H28        -23.4370    20.1190   -16.6730 ha         1 M0U       0.130000
     64 H29        -19.7890    20.0440   -16.3660 hc         1 M0U       0.038700
     65 H30        -21.6280    21.1930   -15.1290 hc         1 M0U       0.039367
     66 H31        -20.6070    22.2680   -16.0840 hc         1 M0U       0.039367
     67 H32        -22.2110    21.8550   -16.6600 hc         1 M0U       0.039367
     68 H33        -19.7060    21.5180   -18.3460 hc         1 M0U       0.039367
     69 H34        -19.9150    19.8520   -18.8800 hc         1 M0U       0.039367
     70 H35        -21.2930    20.9500   -18.8670 hc         1 M0U       0.039367
     71 H36        -19.2380    18.3090   -17.0660 ho         1 M0U       0.475000
     72 H37        -21.4640    15.6420   -17.1100 ha         1 M0U       0.152000
     73 H38        -24.9420    15.8190   -17.0560 ho         1 M0U       0.497000
@<TRIPOS>BOND
     1     1     2 1   
     2     1     6 1   
     3     1    37 1   
     4     1    38 1   
     5     2     3 1   
     6     2    39 1   
     7     2    40 1   
     8     3     4 1   
     9     3    41 1   
    10     3    42 1   
    11     4     5 1   
    12     4    43 1   
    13     4    44 1   
    14     5     6 1   
    15     5    45 1   
    16     5    46 1   
    17     6     7 1   
    18     6    47 1   
    19     7     8 1   
    20     7    48 1   
    21     7    49 1   
    22     8     9 1   
    23     8    50 1   
    24     9    10 1   
    25     9    51 1   
    26     9    52 1   
    27    10    11 ar  
    28    10    13 ar  
    29    11    12 ar  
    30    11    53 1   
    31    12    15 ar  
    32    12    54 1   
    33    13    14 ar  
    34    13    55 1   
    35    14    15 ar  
    36    14    56 1   
    37    15    16 1   
    38    16    17 2   
    39    16    25 1   
    40    17    18 1   
    41    17    23 1   
    42    18    19 2   
    43    18    20 1   
    44    20    21 1   
    45    20    57 1   
    46    21    22 1   
    47    21    58 1   
    48    21    59 1   
    49    22    60 1   
    50    22    61 1   
    51    22    62 1   
    52    23    24 2   
    53    24    25 1   
    54    25    26 1   
    55    26    27 ar  
    56    26    35 ar  
    57    27    28 ar  
    58    27    63 1   
    59    28    29 1   
    60    28    32 ar  
    61    29    30 1   
    62    29    31 1   
    63    29    64 1   
    64    30    65 1   
    65    30    66 1   
    66    30    67 1   
    67    31    68 1   
    68    31    69 1   
    69    31    70 1   
    70    32    33 1   
    71    32    34 ar  
    72    33    71 1   
    73    34    35 ar  
    74    34    72 1   
    75    35    36 1   
    76    36    73 1   
@<TRIPOS>SUBSTRUCTURE
     1 M0U         1 TEMP              0 ****  ****    0 ROOT
