@<TRIPOS>MOLECULE
M0V
   44    46     1     0     0
SMALL
abcg2


@<TRIPOS>ATOM
      1 O1          -4.9880     1.7060     0.6900 o          1 M0V      -0.555000
      2 C4          -4.0390     1.0320     0.3390 c          1 M0V       0.627000
      3 N           -3.9820    -0.3170     0.5880 n          1 M0V      -0.358300
      4 C           -5.0550    -0.9910     1.3010 c3         1 M0V       0.101300
      5 N1          -2.9580     1.5960    -0.3400 n          1 M0V      -0.373400
      6 C5          -3.0070     3.0280    -0.6200 c3         1 M0V       0.084300
      7 C3          -1.8290     0.9260    -0.8170 c          1 M0V       0.633600
      8 O           -0.9570     1.5140    -1.4340 o          1 M0V      -0.550000
      9 C2          -1.8490    -0.4560    -0.4850 cc         1 M0V      -0.353600
     10 N2          -0.9700    -1.4850    -0.7330 na         1 M0V      -0.105500
     11 C6          -1.5180    -2.5750    -0.1840 cc         1 M0V       0.462400
     12 N3          -2.6920    -2.3480     0.3800 nd         1 M0V      -0.702000
     13 C1          -2.8910    -1.0320     0.1910 cd         1 M0V       0.437900
     14 C7           0.3580    -1.3930    -1.3000 c3         1 M0V       0.037600
     15 C8           1.3550    -0.8390    -0.2820 c3         1 M0V       0.151300
     16 O3           1.3570    -1.6050     0.8950 oh         1 M0V      -0.634000
     17 C9           2.7320    -0.7410    -0.9300 c3         1 M0V       0.136800
     18 N4           3.7480    -0.2450    -0.0290 n3         1 M0V      -0.711600
     19 C13          5.0840    -0.4930    -0.5400 c6         1 M0V       0.126300
     20 C12          6.1210    -0.0170     0.4580 c6         1 M0V       0.153600
     21 O2           5.9610     1.3520     0.7590 os         1 M0V      -0.448000
     22 C11          4.6660     1.6080     1.2540 c6         1 M0V       0.153600
     23 C10          3.5930     1.1650     0.2780 c6         1 M0V       0.126300
     24 H1          -5.9250    -0.3470     1.3420 h1         1 M0V       0.059367
     25 H2          -5.3170    -1.9080     0.7790 h1         1 M0V       0.059367
     26 H3          -4.7450    -1.2380     2.3150 h1         1 M0V       0.059367
     27 H4          -3.8130     3.4780    -0.0550 h1         1 M0V       0.058033
     28 H5          -2.0700     3.4960    -0.3300 h1         1 M0V       0.058033
     29 H6          -3.1770     3.2060    -1.6810 h1         1 M0V       0.058033
     30 H7          -1.0290    -3.5370    -0.2210 h5         1 M0V       0.061100
     31 H8           0.6490    -2.3960    -1.6170 h1         1 M0V       0.074200
     32 H9           0.3220    -0.7630    -2.1880 h1         1 M0V       0.074200
     33 H10          1.0130     0.1590     0.0090 h1         1 M0V       0.098700
     34 H11          1.8760    -2.4030     0.7450 ho         1 M0V       0.442000
     35 H12          3.0340    -1.7410    -1.2620 h1         1 M0V       0.037700
     36 H13          2.6530    -0.1270    -1.8440 h1         1 M0V       0.037700
     37 H15          5.2170    -1.5650    -0.7010 h1         1 M0V       0.043200
     38 H16          5.2550     0.0040    -1.5110 h1         1 M0V       0.043200
     39 H17          6.0510    -0.6240     1.3720 h1         1 M0V       0.053200
     40 H18          7.1230    -0.1460     0.0470 h1         1 M0V       0.053200
     41 H19          4.5120     1.0980     2.2150 h1         1 M0V       0.053200
     42 H20          4.5900     2.6820     1.4290 h1         1 M0V       0.053200
     43 H21          3.6380     1.7860    -0.6340 h1         1 M0V       0.043200
     44 H22          2.6200     1.3480     0.7390 h1         1 M0V       0.043200
@<TRIPOS>BOND
     1     1     2 2   
     2     2     3 1   
     3     2     5 1   
     4     3     4 1   
     5     3    13 1   
     6     4    24 1   
     7     4    25 1   
     8     4    26 1   
     9     5     6 1   
    10     5     7 1   
    11     6    27 1   
    12     6    28 1   
    13     6    29 1   
    14     7     8 2   
    15     7     9 1   
    16     9    10 1   
    17     9    13 2   
    18    10    11 1   
    19    10    14 1   
    20    11    12 2   
    21    11    30 1   
    22    12    13 1   
    23    14    15 1   
    24    14    31 1   
    25    14    32 1   
    26    15    16 1   
    27    15    17 1   
    28    15    33 1   
    29    16    34 1   
    30    17    18 1   
    31    17    35 1   
    32    17    36 1   
    33    18    19 1   
    34    18    23 1   
    35    19    20 1   
    36    19    37 1   
    37    19    38 1   
    38    20    21 1   
    39    20    39 1   
    40    20    40 1   
    41    21    22 1   
    42    22    23 1   
    43    22    41 1   
    44    22    42 1   
    45    23    43 1   
    46    23    44 1   
@<TRIPOS>SUBSTRUCTURE
     1 M0V         1 TEMP              0 ****  ****    0 ROOT
