@<TRIPOS>MOLECULE
M0V
   44    46     1     0     0
SMALL
No Charge or Current Charge


@<TRIPOS>ATOM
      1 O1          -5.3000     1.6490     0.3870 o          1 M0V      -0.555000
      2 C4          -4.2760     1.0180     0.1540 c          1 M0V       0.627000
      3 N           -4.1520    -0.3180     0.5630 n          1 M0V      -0.358300
      4 C           -5.2780    -0.9470     1.2960 c3         1 M0V       0.101300
      5 N1          -3.2000     1.6100    -0.5280 n          1 M0V      -0.373400
      6 C5          -3.3340     3.0330    -0.9450 c3         1 M0V       0.084300
      7 C3          -2.0210     0.9310    -0.8580 c          1 M0V       0.633600
      8 O           -1.1000     1.4550    -1.4690 o          1 M0V      -0.550000
      9 C2          -1.9810    -0.4610    -0.4130 cc         1 M0V      -0.353600
     10 N2          -1.0230    -1.4520    -0.5340 na         1 M0V      -0.105500
     11 C6          -1.5200    -2.5690     0.1040 cc         1 M0V       0.462400
     12 N3          -2.7320    -2.3320     0.5880 nd         1 M0V      -0.702000
     13 C1          -3.0120    -1.0240     0.2690 cd         1 M0V       0.437900
     14 C7           0.2900    -1.3490    -1.1940 c3         1 M0V       0.037600
     15 C8           1.3790    -0.7360    -0.2860 c3         1 M0V       0.151300
     16 O3           1.6540    -1.6010     0.8240 oh         1 M0V      -0.634000
     17 C9           2.7220    -0.5060    -1.0240 c3         1 M0V       0.136800
     18 N4           3.8760    -0.3030    -0.1030 n3         1 M0V      -0.711600
     19 C13          5.1900    -0.3770    -0.8160 c6         1 M0V       0.126300
     20 C12          6.3880    -0.1840     0.1590 c6         1 M0V       0.153600
     21 O2           6.2510     1.0610     0.8840 os         1 M0V      -0.448000
     22 C11          5.0190     1.1320     1.6420 c6         1 M0V       0.153600
     23 C10          3.7920     0.9640     0.6970 c6         1 M0V       0.126300
     24 H1          -6.1360    -1.0650     0.6210 h1         1 M0V       0.059367
     25 H2          -5.0000    -1.9340     1.6870 h1         1 M0V       0.059367
     26 H3          -5.5730    -0.3130     2.1420 h1         1 M0V       0.059367
     27 H4          -3.8780     3.6090    -0.1860 h1         1 M0V       0.058033
     28 H5          -2.3520     3.5060    -1.0750 h1         1 M0V       0.058033
     29 H6          -3.8820     3.0870    -1.8940 h1         1 M0V       0.058033
     30 H7          -0.9660    -3.4980     0.1710 h5         1 M0V       0.061100
     31 H8           0.6060    -2.3490    -1.5170 h1         1 M0V       0.074200
     32 H9           0.1820    -0.7350    -2.0960 h1         1 M0V       0.074200
     33 H10          1.0210     0.2390     0.0730 h1         1 M0V       0.098700
     34 H11          2.6230    -1.4650     0.9650 ho         1 M0V       0.442000
     35 H12          2.9140    -1.3870    -1.6520 h1         1 M0V       0.037700
     36 H13          2.6160     0.3520    -1.7030 h1         1 M0V       0.037700
     37 H15          5.2980    -1.3500    -1.3170 h1         1 M0V       0.043200
     38 H16          5.2440     0.3960    -1.5970 h1         1 M0V       0.043200
     39 H17          6.4270    -1.0190     0.8750 h1         1 M0V       0.053200
     40 H18          7.3320    -0.1720    -0.4040 h1         1 M0V       0.053200
     41 H19          5.0170     0.3400     2.4050 h1         1 M0V       0.053200
     42 H20          4.9670     2.1020     2.1550 h1         1 M0V       0.053200
     43 H21          3.7440     1.8350     0.0270 h1         1 M0V       0.043200
     44 H22          2.8800     0.9790     1.3110 h1         1 M0V       0.043200
@<TRIPOS>BOND
     1     1     2 2   
     2     2     3 1   
     3     2     5 1   
     4     3     4 1   
     5     3    13 1   
     6     4    24 1   
     7     4    25 1   
     8     4    26 1   
     9     5     6 1   
    10     5     7 1   
    11     6    27 1   
    12     6    28 1   
    13     6    29 1   
    14     7     8 2   
    15     7     9 1   
    16     9    10 1   
    17     9    13 2   
    18    10    11 1   
    19    10    14 1   
    20    11    12 2   
    21    11    30 1   
    22    12    13 1   
    23    14    15 1   
    24    14    31 1   
    25    14    32 1   
    26    15    16 1   
    27    15    17 1   
    28    15    33 1   
    29    16    34 1   
    30    17    18 1   
    31    17    35 1   
    32    17    36 1   
    33    18    19 1   
    34    18    23 1   
    35    19    20 1   
    36    19    37 1   
    37    19    38 1   
    38    20    21 1   
    39    20    39 1   
    40    20    40 1   
    41    21    22 1   
    42    22    23 1   
    43    22    41 1   
    44    22    42 1   
    45    23    43 1   
    46    23    44 1   
@<TRIPOS>SUBSTRUCTURE
     1 M0V         1 TEMP              0 ****  ****    0 ROOT
