@<TRIPOS>MOLECULE
M0W
   21    22     1     0     0
SMALL
No Charge or Current Charge


@<TRIPOS>ATOM
      1 C10          2.1980    -1.7590    -0.0090 ca         1 M0W      -0.127000
      2 C01         -3.5670    -1.0350    -0.0340 c3         1 M0W       0.224100
      3 C03         -1.1710    -0.0920    -0.0250 ca         1 M0W       0.402900
      4 C05         -0.8070     2.1680    -0.0250 ca         1 M0W       0.171900
      5 C07          1.0680     0.8300    -0.0160 ca         1 M0W       0.053000
      6 C08          2.4650     0.6570    -0.0100 ca         1 M0W      -0.098000
      7 C09          3.0300    -0.6290    -0.0060 ca         1 M0W      -0.083000
      8 C11          0.8020    -1.6070    -0.0150 ca         1 M0W      -0.073000
      9 C12          0.2280    -0.3130    -0.0180 ca         1 M0W      -0.178000
     10 N02         -2.0930    -1.1390    -0.0280 nu         1 M0W      -0.925100
     11 N04         -1.6860     1.1500    -0.0280 nb         1 M0W      -0.293000
     12 N06          0.5370     2.0700    -0.0190 nb         1 M0W      -0.215000
     13 H1           2.6360    -2.7550    -0.0060 ha         1 M0W       0.115000
     14 H2          -3.9200    -0.4960     0.8550 h1         1 M0W       0.044367
     15 H3          -3.9120    -0.4970    -0.9280 h1         1 M0W       0.044367
     16 H4          -4.0230    -2.0340    -0.0350 h1         1 M0W       0.044367
     17 H5          -1.2230     3.1740    -0.0280 h5         1 M0W       0.042100
     18 H6           3.1170     1.5280    -0.0080 ha         1 M0W       0.134000
     19 H7           4.1110    -0.7480    -0.0010 ha         1 M0W       0.116000
     20 H8           0.1830    -2.5000    -0.0170 ha         1 M0W       0.102000
     21 H9          -1.6940    -2.0770    -0.0250 hn         1 M0W       0.498000
@<TRIPOS>BOND
     1     1     7 ar  
     2     1     8 ar  
     3     1    13 1   
     4     2    10 1   
     5     2    14 1   
     6     2    15 1   
     7     2    16 1   
     8     3     9 ar  
     9     3    10 1   
    10     3    11 ar  
    11     4    11 ar  
    12     4    12 ar  
    13     4    17 1   
    14     5     6 ar  
    15     5     9 ar  
    16     5    12 ar  
    17     6     7 ar  
    18     6    18 1   
    19     7    19 1   
    20     8     9 ar  
    21     8    20 1   
    22    10    21 1   
@<TRIPOS>SUBSTRUCTURE
     1 M0W         1 TEMP              0 ****  ****    0 ROOT
