@<TRIPOS>MOLECULE
M0W
   21    22     1     0     0
SMALL
abcg2


@<TRIPOS>ATOM
      1 C10          2.1940    -1.7520    -0.0110 ca         1 M0W      -0.127000
      2 C01         -3.5030    -0.9590    -0.0320 c3         1 M0W       0.224100
      3 C03         -1.2040    -0.1360    -0.0260 ca         1 M0W       0.402900
      4 C05         -0.8090     2.1060    -0.0320 ca         1 M0W       0.171900
      5 C07          1.0260     0.7910    -0.0150 ca         1 M0W       0.053000
      6 C08          2.4280     0.6470    -0.0060 ca         1 M0W      -0.098000
      7 C09          2.9980    -0.6000    -0.0040 ca         1 M0W      -0.083000
      8 C11          0.8260    -1.6350    -0.0190 ca         1 M0W      -0.073000
      9 C12          0.2210    -0.3660    -0.0200 ca         1 M0W      -0.178000
     10 N02         -2.0720    -1.1480    -0.0260 nu         1 M0W      -0.925100
     11 N04         -1.6870     1.0950    -0.0340 nb         1 M0W      -0.293000
     12 N06          0.4910     2.0450    -0.0210 nb         1 M0W      -0.215000
     13 H1           2.6540    -2.7320    -0.0120 ha         1 M0W       0.115000
     14 H2          -3.8450    -0.4300     0.8580 h1         1 M0W       0.044367
     15 H3          -3.8300    -0.3990    -0.9080 h1         1 M0W       0.044367
     16 H4          -3.9710    -1.9390    -0.0530 h1         1 M0W       0.044367
     17 H5          -1.2500     3.0990    -0.0390 h5         1 M0W       0.042100
     18 H6           3.0390     1.5400    -0.0020 ha         1 M0W       0.134000
     19 H7           4.0750    -0.7000     0.0040 ha         1 M0W       0.116000
     20 H8           0.2290    -2.5390    -0.0260 ha         1 M0W       0.102000
     21 H9          -1.7300    -2.0920    -0.0010 hn         1 M0W       0.498000
@<TRIPOS>BOND
     1     1     7 ar  
     2     1     8 ar  
     3     1    13 1   
     4     2    10 1   
     5     2    14 1   
     6     2    15 1   
     7     2    16 1   
     8     3     9 ar  
     9     3    10 1   
    10     3    11 ar  
    11     4    11 ar  
    12     4    12 ar  
    13     4    17 1   
    14     5     6 ar  
    15     5     9 ar  
    16     5    12 ar  
    17     6     7 ar  
    18     6    18 1   
    19     7    19 1   
    20     8     9 ar  
    21     8    20 1   
    22    10    21 1   
@<TRIPOS>SUBSTRUCTURE
     1 M0W         1 TEMP              0 ****  ****    0 ROOT
