@<TRIPOS>MOLECULE
M0X
   49    52     1     0     0
SMALL
abcg2


@<TRIPOS>ATOM
      1 N1           9.0750     0.5890    23.0780 n          1 M0X      -0.231400
      2 N3           7.4410     0.0050    18.8710 nc         1 M0X      -0.155400
      3 C4           8.2560    -1.0890    24.6640 ca         1 M0X      -0.061000
      4 C5           9.1200    -0.7320    23.6340 ca         1 M0X      -0.134000
      5 C6          10.0500    -1.6630    23.1840 ca         1 M0X      -0.061000
      6 C7          10.1100    -2.9320    23.7350 ca         1 M0X      -0.187000
      7 C8           9.8520     1.6310    23.7700 c3         1 M0X       0.172300
      8 C10         12.1700     1.0960    24.6410 cc         1 M0X      -0.222000
      9 C13          8.4590     0.8710    21.9100 c          1 M0X       0.586100
     10 C15          5.5210     1.0000    18.7310 ca         1 M0X       0.014400
     11 C17          4.8300     1.1280    21.0850 ca         1 M0X      -0.110000
     12 C20          4.3500     1.6390    18.3010 ca         1 M0X      -0.027000
     13 O            8.4700     1.9770    21.3780 o          1 M0X      -0.580100
     14 C9          11.3280     1.4130    23.6130 cd         1 M0X      -0.134300
     15 C12         12.0090     1.4570    22.3560 cd         1 M0X      -0.115000
     16 C11         13.3390     1.1770    22.4640 cc         1 M0X      -0.240000
     17 S           13.7850     0.8560    24.0970 ss         1 M0X       0.182000
     18 C3           8.3080    -2.3520    25.2300 ca         1 M0X      -0.187000
     19 C2           9.2480    -3.3100    24.7880 ca         1 M0X       0.341000
     20 N            9.3250    -4.5550    25.3640 nh         1 M0X      -0.823400
     21 C1           8.2900    -4.9820    26.2900 c3         1 M0X       0.211100
     22 C           10.1430    -5.5830    24.7430 c3         1 M0X       0.211100
     23 C14          7.7160    -0.3070    21.2620 c3         1 M0X       0.010600
     24 N2           6.9480     0.1210    20.1230 na         1 M0X       0.066600
     25 C16          5.7430     0.7520    20.0960 ca         1 M0X      -0.058200
     26 C18          3.6820     1.7570    20.6450 ca         1 M0X      -0.077000
     27 C19          3.4440     2.0100    19.2730 ca         1 M0X      -0.140000
     28 N4           6.6010     0.5160    18.0290 nd         1 M0X      -0.218400
     29 H2          10.7290    -1.3940    22.3840 ha         1 M0X       0.122000
     30 H3          10.8370    -3.6280    23.3460 ha         1 M0X       0.118000
     31 H4           9.5510     2.5880    23.3480 h1         1 M0X       0.071200
     32 H5           9.5780     1.6110    24.8240 h1         1 M0X       0.071200
     33 H6          11.9210     0.9790    25.6840 h4         1 M0X       0.149000
     34 H7           5.0120     0.9390    22.1340 ha         1 M0X       0.122000
     35 H8           4.1720     1.8300    17.2520 ha         1 M0X       0.133000
     36 H9          11.5200     1.6830    21.4190 ha         1 M0X       0.147000
     37 H10         14.0810     1.1450    21.6820 h4         1 M0X       0.151000
     38 H11          7.6120    -2.5930    26.0180 ha         1 M0X       0.118000
     39 H12          8.2260    -4.3080    27.1460 h1         1 M0X       0.039033
     40 H13          7.3010    -5.0280    25.8170 h1         1 M0X       0.039033
     41 H14          8.5400    -5.9720    26.6630 h1         1 M0X       0.039033
     42 H15         10.1140    -6.4760    25.3620 h1         1 M0X       0.039033
     43 H16          9.7920    -5.8440    23.7370 h1         1 M0X       0.039033
     44 H17         11.1840    -5.2620    24.6670 h1         1 M0X       0.039033
     45 H18          7.0550    -0.7880    21.9820 h1         1 M0X       0.090700
     46 H19          8.4320    -1.0520    20.9220 h1         1 M0X       0.090700
     47 H20          2.9410     2.0700    21.3690 ha         1 M0X       0.114000
     48 H21          2.5260     2.5070    18.9870 ha         1 M0X       0.117000
     49 H1           7.5260    -0.3720    25.0190 ha         1 M0X       0.122000
@<TRIPOS>BOND
     1     1     4 1   
     2     1     7 1   
     3     1     9 1   
     4     2    24 1   
     5     2    28 2   
     6     3     4 ar  
     7     3    18 ar  
     8     3    49 1   
     9     4     5 ar  
    10     5     6 ar  
    11     5    29 1   
    12     6    19 ar  
    13     6    30 1   
    14     7    14 1   
    15     7    31 1   
    16     7    32 1   
    17     8    14 2   
    18     8    17 1   
    19     8    33 1   
    20     9    13 2   
    21     9    23 1   
    22    10    12 ar  
    23    10    25 ar  
    24    10    28 1   
    25    11    25 ar  
    26    11    26 ar  
    27    11    34 1   
    28    12    27 ar  
    29    12    35 1   
    30    14    15 1   
    31    15    16 2   
    32    15    36 1   
    33    16    17 1   
    34    16    37 1   
    35    18    19 ar  
    36    18    38 1   
    37    19    20 1   
    38    20    21 1   
    39    20    22 1   
    40    21    39 1   
    41    21    40 1   
    42    21    41 1   
    43    22    42 1   
    44    22    43 1   
    45    22    44 1   
    46    23    24 1   
    47    23    45 1   
    48    23    46 1   
    49    24    25 1   
    50    26    27 ar  
    51    26    47 1   
    52    27    48 1   
@<TRIPOS>SUBSTRUCTURE
     1 M0X         1 TEMP              0 ****  ****    0 ROOT
