@<TRIPOS>MOLECULE
M0X
   49    52     1     0     0
SMALL
No Charge or Current Charge


@<TRIPOS>ATOM
      1 N1           9.3810     0.4110    22.7220 n          1 M0X      -0.231400
      2 N3           7.3460    -0.1450    18.3290 nc         1 M0X      -0.155400
      3 C4           8.4960    -0.9570    24.5750 ca         1 M0X      -0.061000
      4 C5           9.3160    -0.8430    23.4360 ca         1 M0X      -0.134000
      5 C6           9.8470    -2.0190    22.8690 ca         1 M0X      -0.061000
      6 C7           9.6540    -3.2630    23.4930 ca         1 M0X      -0.187000
      7 C8           9.8310     1.6050    23.4780 c3         1 M0X       0.172300
      8 C10         12.2050     1.0170    24.2070 cc         1 M0X      -0.222000
      9 C13          9.0790     0.5690    21.3410 c          1 M0X       0.586100
     10 C15          5.4460     0.7650    18.9260 ca         1 M0X       0.014400
     11 C17          5.5620     0.7700    21.3490 ca         1 M0X      -0.110000
     12 C20          4.1770     1.3610    18.9370 ca         1 M0X      -0.027000
     13 O            9.3570     1.6060    20.7440 o          1 M0X      -0.580100
     14 C9          11.3310     1.7760    23.4660 cd         1 M0X      -0.134300
     15 C12         12.0070     2.7460    22.6700 cd         1 M0X      -0.115000
     16 C11         13.3710     2.7310    22.8030 cc         1 M0X      -0.240000
     17 S           13.8780     1.4890    23.9370 ss         1 M0X       0.182000
     18 C3           8.3030    -2.2030    25.1950 ca         1 M0X      -0.187000
     19 C2           8.8880    -3.3710    24.6690 ca         1 M0X       0.341000
     20 N            8.6930    -4.6290    25.2960 nh         1 M0X      -0.823400
     21 C1           7.4790    -4.9160    26.0970 c3         1 M0X       0.211100
     22 C            9.6960    -5.7150    25.1800 c3         1 M0X       0.211100
     23 C14          8.3240    -0.5650    20.6250 c3         1 M0X       0.010600
     24 N2           7.2840    -0.0730    19.7120 na         1 M0X       0.066600
     25 C16          6.0990     0.4880    20.0840 ca         1 M0X      -0.058200
     26 C18          4.2850     1.3690    21.3920 ca         1 M0X      -0.077000
     27 C19          3.5960     1.6640    20.1890 ca         1 M0X      -0.140000
     28 N4           6.2180     0.3750    17.8400 nd         1 M0X      -0.218400
     29 H2          10.4390    -1.9700    21.9580 ha         1 M0X       0.122000
     30 H3          10.0920    -4.1480    23.0420 ha         1 M0X       0.118000
     31 H4           9.3530     2.5060    23.0730 h1         1 M0X       0.071200
     32 H5           9.5040     1.5230    24.5220 h1         1 M0X       0.071200
     33 H6          11.9880     0.2070    24.8910 h4         1 M0X       0.149000
     34 H7           6.1020     0.5380    22.2650 ha         1 M0X       0.122000
     35 H8           3.6570     1.5820    18.0080 ha         1 M0X       0.133000
     36 H9          11.4870     3.4370    22.0110 ha         1 M0X       0.147000
     37 H10         14.1150     3.3510    22.3190 h4         1 M0X       0.151000
     38 H11          7.6910    -2.2520    26.0900 ha         1 M0X       0.118000
     39 H12          7.6000    -4.5480    27.1250 h1         1 M0X       0.039033
     40 H13          6.5980    -4.4360    25.6510 h1         1 M0X       0.039033
     41 H14          7.2820    -5.9960    26.1360 h1         1 M0X       0.039033
     42 H15          9.6320    -6.4000    26.0360 h1         1 M0X       0.039033
     43 H16          9.5350    -6.2920    24.2590 h1         1 M0X       0.039033
     44 H17         10.7130    -5.3010    25.1640 h1         1 M0X       0.039033
     45 H18          7.8360    -1.2030    21.3680 h1         1 M0X       0.090700
     46 H19          9.0520    -1.1670    20.0710 h1         1 M0X       0.090700
     47 H20          3.8290     1.6060    22.3510 ha         1 M0X       0.114000
     48 H21          2.6120     2.1260    20.2300 ha         1 M0X       0.117000
     49 H1           7.9980    -0.0810    24.9860 ha         1 M0X       0.122000
@<TRIPOS>BOND
     1     1     4 1   
     2     1     7 1   
     3     1     9 1   
     4     2    24 1   
     5     2    28 2   
     6     3     4 ar  
     7     3    18 ar  
     8     3    49 1   
     9     4     5 ar  
    10     5     6 ar  
    11     5    29 1   
    12     6    19 ar  
    13     6    30 1   
    14     7    14 1   
    15     7    31 1   
    16     7    32 1   
    17     8    14 2   
    18     8    17 1   
    19     8    33 1   
    20     9    13 2   
    21     9    23 1   
    22    10    12 ar  
    23    10    25 ar  
    24    10    28 1   
    25    11    25 ar  
    26    11    26 ar  
    27    11    34 1   
    28    12    27 ar  
    29    12    35 1   
    30    14    15 1   
    31    15    16 2   
    32    15    36 1   
    33    16    17 1   
    34    16    37 1   
    35    18    19 ar  
    36    18    38 1   
    37    19    20 1   
    38    20    21 1   
    39    20    22 1   
    40    21    39 1   
    41    21    40 1   
    42    21    41 1   
    43    22    42 1   
    44    22    43 1   
    45    22    44 1   
    46    23    24 1   
    47    23    45 1   
    48    23    46 1   
    49    24    25 1   
    50    26    27 ar  
    51    26    47 1   
    52    27    48 1   
@<TRIPOS>SUBSTRUCTURE
     1 M0X         1 TEMP              0 ****  ****    0 ROOT
