@<TRIPOS>MOLECULE
M0Y
   35    37     1     0     0
SMALL
bcc


@<TRIPOS>ATOM
      1 C1           4.6000     1.2700     1.4130 ca         1 M0Y      -0.118000
      2 C2           3.2810     1.7140     1.6380 ca         1 M0Y      -0.124000
      3 C3           2.2240     1.1100     1.0140 ca         1 M0Y      -0.104000
      4 C4           2.4340     0.0220     0.1330 ca         1 M0Y      -0.021000
      5 C5           3.7620    -0.4410    -0.0750 ca         1 M0Y      -0.034000
      6 C6           4.8320     0.2140     0.5770 ca         1 M0Y      -0.118000
      7 C7           3.9930    -1.5590    -0.9110 ca         1 M0Y      -0.105000
      8 C8           2.9540    -2.2020    -1.5220 ca         1 M0Y      -0.123000
      9 C9           1.6360    -1.7400    -1.3430 ca         1 M0Y      -0.115000
     10 C10          1.3870    -0.6580    -0.5440 ca         1 M0Y       0.013800
     11 N1           0.0460    -0.2370    -0.3780 na         1 M0Y       0.194300
     12 C11         -0.9850    -1.0140     0.0520 cc         1 M0Y      -0.162300
     13 C12         -2.1060    -0.2140     0.0110 cd         1 M0Y      -0.040700
     14 C13         -1.6300     1.0300    -0.4660 cd         1 M0Y       0.203800
     15 N2          -0.3270     0.9830    -0.6960 nc         1 M0Y      -0.496800
     16 C14         -2.4180     2.2550    -0.6960 c          1 M0Y       0.615600
     17 O1          -3.6290     2.2630    -0.4860 o          1 M0Y      -0.643100
     18 N3          -1.7330     3.3140    -1.1360 nt         1 M0Y      -0.653000
     19 N4          -3.4170    -0.4790     0.3490 ns         1 M0Y      -0.463100
     20 C15         -3.8830    -1.6960     0.7640 c          1 M0Y       0.786100
     21 O2          -3.1570    -2.6740     0.8800 o          1 M0Y      -0.641100
     22 N5          -5.2190    -1.7260     0.9960 nt         1 M0Y      -0.666000
     23 H1           5.4240     1.7640     1.9100 ha         1 M0Y       0.134000
     24 H2           3.1050     2.5430     2.3110 ha         1 M0Y       0.134000
     25 H3           1.2230     1.4730     1.1990 ha         1 M0Y       0.147000
     26 H4           5.8410    -0.1410     0.4080 ha         1 M0Y       0.134000
     27 H5           5.0100    -1.9040    -1.0530 ha         1 M0Y       0.137000
     28 H6           3.1330    -3.0590    -2.1560 ha         1 M0Y       0.141000
     29 H7           0.8190    -2.2350    -1.8510 ha         1 M0Y       0.150000
     30 H8          -0.8320    -2.0330     0.3560 h4         1 M0Y       0.209000
     31 H9          -0.7390     3.2720    -1.2860 hn         1 M0Y       0.325500
     32 H10         -2.2040     4.1860    -1.3140 hn         1 M0Y       0.325500
     33 H11         -4.0520     0.2960     0.2300 hn         1 M0Y       0.354500
     34 H12         -5.7390    -0.8750     1.1310 hn         1 M0Y       0.311500
     35 H13         -5.5820    -2.5340     1.4740 hn         1 M0Y       0.311500
@<TRIPOS>BOND
     1     1     2 ar  
     2     1     6 ar  
     3     1    23 1   
     4     2     3 ar  
     5     2    24 1   
     6     3     4 ar  
     7     3    25 1   
     8     4     5 ar  
     9     4    10 ar  
    10     5     6 ar  
    11     5     7 ar  
    12     6    26 1   
    13     7     8 ar  
    14     7    27 1   
    15     8     9 ar  
    16     8    28 1   
    17     9    10 ar  
    18     9    29 1   
    19    10    11 1   
    20    11    12 1   
    21    11    15 1   
    22    12    13 2   
    23    12    30 1   
    24    13    14 1   
    25    13    19 1   
    26    14    15 2   
    27    14    16 1   
    28    16    17 2   
    29    16    18 1   
    30    18    31 1   
    31    18    32 1   
    32    19    20 1   
    33    19    33 1   
    34    20    21 2   
    35    20    22 1   
    36    22    34 1   
    37    22    35 1   
@<TRIPOS>SUBSTRUCTURE
     1 M0Y         1 TEMP              0 ****  ****    0 ROOT
