@<TRIPOS>MOLECULE
M0Y
   35    37     1     0     0
SMALL
No Charge or Current Charge


@<TRIPOS>ATOM
      1 C1           4.3630     0.4270     2.1600 ca         1 M0Y      -0.100000
      2 C2           3.0320     0.8180     2.3720 ca         1 M0Y      -0.106000
      3 C3           2.0540     0.5520     1.3990 ca         1 M0Y      -0.086000
      4 C4           2.3980    -0.1140     0.1980 ca         1 M0Y      -0.021000
      5 C5           3.7460    -0.4980    -0.0090 ca         1 M0Y      -0.034000
      6 C6           4.7190    -0.2280     0.9710 ca         1 M0Y      -0.100000
      7 C7           4.1220    -1.1520    -1.1970 ca         1 M0Y      -0.087000
      8 C8           3.1650    -1.4250    -2.1860 ca         1 M0Y      -0.105000
      9 C9           1.8270    -1.0500    -1.9890 ca         1 M0Y      -0.097000
     10 C10          1.4310    -0.3980    -0.8040 ca         1 M0Y       0.013800
     11 N1           0.0860    -0.0600    -0.6460 na         1 M0Y       0.245000
     12 C11         -0.7730    -0.7410     0.1970 cc         1 M0Y      -0.195000
     13 C12         -1.9390    -0.0590     0.0120 cd         1 M0Y       0.024600
     14 C13         -1.7130     0.9870    -0.9310 cd         1 M0Y       0.138500
     15 N2          -0.4470     0.9940    -1.3520 nc         1 M0Y      -0.496800
     16 C14         -2.7510     1.9680    -1.4080 c          1 M0Y       0.548600
     17 O1          -3.9170     1.9820    -1.0390 o          1 M0Y      -0.643100
     18 N3          -2.3260     2.8850    -2.3100 nt         1 M0Y      -0.586000
     19 N4          -3.1620    -0.3090     0.6200 ns         1 M0Y      -0.396100
     20 C15         -3.4860    -1.2790     1.5340 c          1 M0Y       0.652100
     21 O2          -2.7180    -2.1130     1.9770 o          1 M0Y      -0.641100
     22 N5          -4.7700    -1.2430     1.9240 nt         1 M0Y      -0.599000
     23 H1           5.1180     0.6350     2.9150 ha         1 M0Y       0.116000
     24 H2           2.7570     1.3290     3.2920 ha         1 M0Y       0.116000
     25 H3           1.0330     0.8730     1.5910 ha         1 M0Y       0.129000
     26 H4           5.7540    -0.5250     0.8130 ha         1 M0Y       0.116000
     27 H5           5.1570    -1.4470    -1.3570 ha         1 M0Y       0.119000
     28 H6           3.4590    -1.9290    -3.1040 ha         1 M0Y       0.123000
     29 H7           1.0900    -1.2690    -2.7590 ha         1 M0Y       0.132000
     30 H8          -0.4870    -1.5880     0.8060 h4         1 M0Y       0.191000
     31 H9          -1.3620     2.8700    -2.6120 hn         1 M0Y       0.325500
     32 H10         -2.9730     3.5710    -2.6690 hn         1 M0Y       0.325500
     33 H11         -3.9360     0.2970     0.3700 hn         1 M0Y       0.354500
     34 H12         -5.4060    -0.5520     1.5570 hn         1 M0Y       0.311500
     35 H13         -5.0920    -1.9230     2.5960 hn         1 M0Y       0.311500
@<TRIPOS>BOND
     1     1     2 ar  
     2     1     6 ar  
     3     1    23 1   
     4     2     3 ar  
     5     2    24 1   
     6     3     4 ar  
     7     3    25 1   
     8     4     5 ar  
     9     4    10 ar  
    10     5     6 ar  
    11     5     7 ar  
    12     6    26 1   
    13     7     8 ar  
    14     7    27 1   
    15     8     9 ar  
    16     8    28 1   
    17     9    10 ar  
    18     9    29 1   
    19    10    11 1   
    20    11    12 1   
    21    11    15 1   
    22    12    13 2   
    23    12    30 1   
    24    13    14 1   
    25    13    19 1   
    26    14    15 2   
    27    14    16 1   
    28    16    17 2   
    29    16    18 1   
    30    18    31 1   
    31    18    32 1   
    32    19    20 1   
    33    19    33 1   
    34    20    21 2   
    35    20    22 1   
    36    22    34 1   
    37    22    35 1   
@<TRIPOS>SUBSTRUCTURE
     1 M0Y         1 TEMP              0 ****  ****    0 ROOT
