@<TRIPOS>MOLECULE
M0Z
   39    41     1     0     0
SMALL
No Charge or Current Charge


@<TRIPOS>ATOM
      1 N1          -0.3690     0.5540     0.8570 na         1 M0Z       0.245000
      2 N2          -0.8710    -0.2710     1.8370 nc         1 M0Z      -0.493800
      3 C1          -2.0290    -0.6560     1.2980 cd         1 M0Z       0.138500
      4 C2          -2.2230    -0.0700     0.0130 cd         1 M0Z       0.022600
      5 C3          -1.1470     0.7190    -0.2750 cc         1 M0Z      -0.194000
      6 N3          -3.3380    -0.2890    -0.7840 ns         1 M0Z      -0.397100
      7 C4          -3.6220     0.2200    -2.0250 c          1 M0Z       0.654100
      8 N4          -4.7970    -0.1990    -2.5220 nt         1 M0Z      -0.601000
      9 O1          -2.9100     0.9810    -2.6540 o          1 M0Z      -0.642100
     10 C5          -2.9910    -1.5910     1.9820 c          1 M0Z       0.549600
     11 N5          -2.6140    -2.0360     3.2040 nt         1 M0Z      -0.585000
     12 O2          -4.0580    -1.9600     1.5100 o          1 M0Z      -0.646100
     13 C6           0.8660     1.1780     1.0340 ca         1 M0Z       0.001800
     14 C7           0.9470     2.2680     1.9230 ca         1 M0Z      -0.084000
     15 C8           2.1640     2.9390     2.1210 ca         1 M0Z      -0.119000
     16 C9           3.3130     2.5250     1.4300 ca         1 M0Z      -0.072000
     17 C10          2.0270     0.7520     0.3370 ca         1 M0Z       0.019000
     18 C11          3.2500     1.4360     0.5410 ca         1 M0Z      -0.070000
     19 C12          4.4110     1.0300    -0.1420 ca         1 M0Z      -0.063000
     20 C13          4.3700    -0.0580    -1.0290 ca         1 M0Z      -0.174000
     21 C14          3.1590    -0.7500    -1.2360 ca         1 M0Z       0.147100
     22 C15          2.0000    -0.3460    -0.5560 ca         1 M0Z      -0.141000
     23 O3           3.0580    -1.8290    -2.0920 os         1 M0Z      -0.339100
     24 C16          4.1840    -2.3260    -2.8380 c3         1 M0Z       0.149900
     25 H1          -0.8750     1.3390    -1.1180 h4         1 M0Z       0.191000
     26 H2          -4.0530    -0.9080    -0.4190 hn         1 M0Z       0.354500
     27 H4          -5.3870    -0.8290    -2.0010 hn         1 M0Z       0.312000
     28 H3          -5.0830     0.1300    -3.4320 hn         1 M0Z       0.312000
     29 H5          -1.7320    -1.7300     3.5900 hn         1 M0Z       0.325500
     30 H6          -3.2140    -2.6660     3.7150 hn         1 M0Z       0.325500
     31 H7           0.0600     2.5980     2.4600 ha         1 M0Z       0.130000
     32 H8           2.2170     3.7800     2.8080 ha         1 M0Z       0.123000
     33 H9           4.2520     3.0510     1.5880 ha         1 M0Z       0.117000
     34 H10          5.3500     1.5570     0.0150 ha         1 M0Z       0.115000
     35 H11          5.2830    -0.3470    -1.5410 ha         1 M0Z       0.120000
     36 H12          1.0850    -0.9030    -0.7310 ha         1 M0Z       0.144000
     37 H14          3.8830    -3.1830    -3.4530 h1         1 M0Z       0.042033
     38 H13          4.5810    -1.5510    -3.5060 h1         1 M0Z       0.042033
     39 H15          4.9840    -2.6550    -2.1630 h1         1 M0Z       0.042033
@<TRIPOS>BOND
     1     1     2 1   
     2     1     5 1   
     3     1    13 1   
     4     2     3 2   
     5     3     4 1   
     6     3    10 1   
     7     4     5 2   
     8     4     6 1   
     9     5    25 1   
    10     6     7 1   
    11     6    26 1   
    12     7     8 1   
    13     7     9 2   
    14     8    27 1   
    15     8    28 1   
    16    10    11 1   
    17    10    12 2   
    18    11    29 1   
    19    11    30 1   
    20    13    14 ar  
    21    13    17 ar  
    22    14    15 ar  
    23    14    31 1   
    24    15    16 ar  
    25    15    32 1   
    26    16    18 ar  
    27    16    33 1   
    28    17    18 ar  
    29    17    22 ar  
    30    18    19 ar  
    31    19    20 ar  
    32    19    34 1   
    33    20    21 ar  
    34    20    35 1   
    35    21    22 ar  
    36    21    23 1   
    37    22    36 1   
    38    23    24 1   
    39    24    37 1   
    40    24    38 1   
    41    24    39 1   
@<TRIPOS>SUBSTRUCTURE
     1 M0Z         1 TEMP              0 ****  ****    0 ROOT
