@<TRIPOS>MOLECULE
M0Z
   39    41     1     0     0
SMALL
abcg2


@<TRIPOS>ATOM
      1 N1          -0.4020     0.6100     0.4650 na         1 M0Z       0.245000
      2 N2          -0.6110    -0.5330     1.0820 nc         1 M0Z      -0.493800
      3 C1          -1.8430    -0.8930     0.7570 cd         1 M0Z       0.138500
      4 C2          -2.4440     0.0630    -0.0940 cd         1 M0Z       0.022600
      5 C3          -1.4730     1.0260    -0.2620 cc         1 M0Z      -0.194000
      6 N3          -3.7220    -0.0320    -0.6050 ns         1 M0Z      -0.397100
      7 C4          -4.3180     0.9170    -1.3890 c          1 M0Z       0.654100
      8 N4          -5.5840     0.6100    -1.7670 nt         1 M0Z      -0.601000
      9 O1          -3.7380     1.9330    -1.7450 o          1 M0Z      -0.642100
     10 C5          -2.4490    -2.1400     1.2590 c          1 M0Z       0.549600
     11 N5          -1.6780    -2.8860     2.0540 nt         1 M0Z      -0.585000
     12 O2          -3.5990    -2.4420     0.9450 o          1 M0Z      -0.646100
     13 C6           0.8120     1.3190     0.6360 ca         1 M0Z       0.001800
     14 C7           0.7670     2.5710     1.1830 ca         1 M0Z      -0.084000
     15 C8           1.9480     3.3170     1.3630 ca         1 M0Z      -0.119000
     16 C9           3.1510     2.7800     0.9990 ca         1 M0Z      -0.072000
     17 C10          2.0390     0.7330     0.2170 ca         1 M0Z       0.019000
     18 C11          3.2230     1.4920     0.4220 ca         1 M0Z      -0.070000
     19 C12          4.4540     0.9350     0.0170 ca         1 M0Z      -0.063000
     20 C13          4.5250    -0.2940    -0.5770 ca         1 M0Z      -0.174000
     21 C14          3.3410    -1.0350    -0.8010 ca         1 M0Z       0.147100
     22 C15          2.1240    -0.5280    -0.4020 ca         1 M0Z      -0.141000
     23 O3           3.3260    -2.2410    -1.3940 os         1 M0Z      -0.339100
     24 C16          4.5410    -2.7930    -1.8660 c3         1 M0Z       0.149900
     25 H1          -1.4450     1.9370    -0.8310 h4         1 M0Z       0.191000
     26 H2          -4.2320    -0.8550    -0.3180 hn         1 M0Z       0.354500
     27 H4          -6.1100    -0.1030    -1.2900 hn         1 M0Z       0.312000
     28 H3          -6.1300     1.3450    -2.1830 hn         1 M0Z       0.312000
     29 H5          -0.7360    -2.6130     2.2790 hn         1 M0Z       0.325500
     30 H6          -2.0210    -3.7570     2.4240 hn         1 M0Z       0.325500
     31 H7          -0.1840     2.9870     1.4890 ha         1 M0Z       0.130000
     32 H8           1.8930     4.3040     1.8010 ha         1 M0Z       0.123000
     33 H9           4.0670     3.3400     1.1410 ha         1 M0Z       0.117000
     34 H10          5.3630     1.5010     0.1790 ha         1 M0Z       0.115000
     35 H11          5.4910    -0.6800    -0.8720 ha         1 M0Z       0.120000
     36 H12          1.2330    -1.1160    -0.5750 ha         1 M0Z       0.144000
     37 H14          4.2860    -3.7400    -2.3350 h1         1 M0Z       0.042033
     38 H13          5.0190    -2.1510    -2.6100 h1         1 M0Z       0.042033
     39 H15          5.2480    -2.9840    -1.0550 h1         1 M0Z       0.042033
@<TRIPOS>BOND
     1     1     2 1   
     2     1     5 1   
     3     1    13 1   
     4     2     3 2   
     5     3     4 1   
     6     3    10 1   
     7     4     5 2   
     8     4     6 1   
     9     5    25 1   
    10     6     7 1   
    11     6    26 1   
    12     7     8 1   
    13     7     9 2   
    14     8    27 1   
    15     8    28 1   
    16    10    11 1   
    17    10    12 2   
    18    11    29 1   
    19    11    30 1   
    20    13    14 ar  
    21    13    17 ar  
    22    14    15 ar  
    23    14    31 1   
    24    15    16 ar  
    25    15    32 1   
    26    16    18 ar  
    27    16    33 1   
    28    17    18 ar  
    29    17    22 ar  
    30    18    19 ar  
    31    19    20 ar  
    32    19    34 1   
    33    20    21 ar  
    34    20    35 1   
    35    21    22 ar  
    36    21    23 1   
    37    22    36 1   
    38    23    24 1   
    39    24    37 1   
    40    24    38 1   
    41    24    39 1   
@<TRIPOS>SUBSTRUCTURE
     1 M0Z         1 TEMP              0 ****  ****    0 ROOT
