@<TRIPOS>MOLECULE
M11
   49    48     1     0     0
SMALL
No Charge or Current Charge


@<TRIPOS>ATOM
      1 O43         -3.1040     2.0580    -1.8050 o          1 M11      -0.711500
      2 C31         -3.8320     2.1560    -0.8230 c          1 M11       0.716000
      3 O42         -4.1580     3.2370    -0.3490 o          1 M11      -0.711500
      4 C30         -4.2340     0.8510    -0.0400 c3         1 M11       0.036300
      5 O29         -3.2670    -0.2220    -0.2190 os         1 M11      -0.441100
      6 C13         -2.0150    -0.0820     0.3280 c          1 M11       0.597100
      7 O18         -1.6650     0.8680     1.0200 o          1 M11      -0.483000
      8 C12         -1.1270    -1.3190     0.0350 c3         1 M11       0.045700
      9 S17         -0.7700    -4.1450     0.1850 sh         1 M11      -0.496800
     10 C25         -1.9730    -2.5530     2.1500 c3         1 M11      -0.082100
     11 N11          0.2740    -1.0810     0.4730 ns         1 M11      -0.493900
     12 C10          1.3960    -1.5200    -0.1910 c          1 M11       0.615100
     13 O15          1.3280    -2.1740    -1.2220 o          1 M11      -0.617100
     14 C7           2.7290    -1.1640     0.4760 c3         1 M11      -0.154400
     15 C4           3.4730    -0.0470    -0.2950 c3         1 M11      -0.068400
     16 C3           4.8250     0.3360     0.3580 c3         1 M11      -0.103400
     17 C2           5.5740     1.5030    -0.3430 c3         1 M11       0.023500
     18 N14          5.9620     1.1030    -1.7440 n8         1 M11      -0.991200
     19 C1           6.7400     2.0610     0.5810 c          1 M11       0.724000
     20 O20          6.6510     3.2090     0.9990 o          1 M11      -0.739000
     21 O19          7.7180     1.3510     0.7860 o          1 M11      -0.739000
     22 C32         -5.6170     0.2780    -0.4840 c3         1 M11      -0.049700
     23 C37         -6.0060    -0.9900     0.3200 c3         1 M11      -0.077100
     24 C33         -6.7560     1.3240    -0.4100 c3         1 M11      -0.077100
     25 CAV         -1.7410    -2.6250     0.6240 c3         1 M11       0.102300
     26 H30         -4.3060     1.1170     1.0230 h1         1 M11       0.039700
     27 H32         -5.5250    -0.0190    -1.5370 hc         1 M11       0.059700
     28 H12         -1.1350    -1.4170    -1.0580 h1         1 M11       0.110700
     29 H11          0.4290    -0.5300     1.3100 hn         1 M11       0.322500
     30 HAV         -2.7280    -2.7550     0.1570 h1         1 M11       0.080700
     31 H17          0.0860    -3.5170    -0.6670 hs         1 M11       0.232800
     32 H251        -2.6460    -1.7290     2.4130 hc         1 M11       0.043033
     33 H252        -2.4300    -3.4830     2.5090 hc         1 M11       0.043033
     34 H253        -1.0250    -2.4120     2.6830 hc         1 M11       0.043033
     35 H7C1         2.5530    -0.8190     1.5020 hc         1 M11       0.055700
     36 H7C2         3.3630    -2.0580     0.4890 hc         1 M11       0.055700
     37 H4C1         3.6400    -0.3810    -1.3270 hc         1 M11       0.043200
     38 H4C2         2.8310     0.8420    -0.3460 hc         1 M11       0.043200
     39 H3C1         4.6330     0.6290     1.3980 hc         1 M11       0.040200
     40 H3C2         5.4760    -0.5460     0.4000 hc         1 M11       0.040200
     41 H2           4.8530     2.3260    -0.4420 h1         1 M11       0.045700
     42 H141         6.6940     0.3840    -1.6870 hn         1 M11       0.374500
     43 H142         5.1730     0.6180    -2.1840 hn         1 M11       0.374500
     44 H371        -6.0720    -0.7650     1.3910 hc         1 M11       0.021867
     45 H372        -6.9790    -1.3740    -0.0100 hc         1 M11       0.021867
     46 H373        -5.2720    -1.7920     0.1820 hc         1 M11       0.021867
     47 H331        -6.5760     2.1570    -1.0990 hc         1 M11       0.021867
     48 H332        -7.7160     0.8720    -0.6890 hc         1 M11       0.021867
     49 H333        -6.8500     1.7270     0.6060 hc         1 M11       0.021867
@<TRIPOS>BOND
     1     1     2 1   
     2     2     3 1   
     3     2     4 1   
     4     4     5 1   
     5     4    22 1   
     6     4    26 1   
     7     5     6 1   
     8     6     7 2   
     9     6     8 1   
    10     8    11 1   
    11     8    25 1   
    12     8    28 1   
    13     9    25 1   
    14     9    31 1   
    15    10    25 1   
    16    10    32 1   
    17    10    33 1   
    18    10    34 1   
    19    11    12 1   
    20    11    29 1   
    21    12    13 2   
    22    12    14 1   
    23    14    15 1   
    24    14    35 1   
    25    14    36 1   
    26    15    16 1   
    27    15    37 1   
    28    15    38 1   
    29    16    17 1   
    30    16    39 1   
    31    16    40 1   
    32    17    18 1   
    33    17    19 1   
    34    17    41 1   
    35    18    42 1   
    36    18    43 1   
    37    19    20 1   
    38    19    21 1   
    39    22    23 1   
    40    22    24 1   
    41    22    27 1   
    42    23    44 1   
    43    23    45 1   
    44    23    46 1   
    45    24    47 1   
    46    24    48 1   
    47    24    49 1   
    48    25    30 1   
@<TRIPOS>SUBSTRUCTURE
     1 M11         1 TEMP              0 ****  ****    0 ROOT
