@<TRIPOS>MOLECULE
M11
   49    48     1     0     0
SMALL
abcg2


@<TRIPOS>ATOM
      1 O43         -3.5180     2.2830    -1.1990 o          1 M11      -0.711500
      2 C31         -4.2200     2.1470    -0.1820 c          1 M11       0.716000
      3 O42         -4.7460     3.0380     0.5070 o          1 M11      -0.711500
      4 C30         -4.5210     0.6970     0.2590 c3         1 M11       0.036300
      5 O29         -3.4200    -0.1670    -0.0770 os         1 M11      -0.441100
      6 C13         -2.2560     0.0620     0.4870 c          1 M11       0.597100
      7 O18         -2.0450     0.9130     1.3140 o          1 M11      -0.483000
      8 C12         -1.2070    -0.9270    -0.0060 c3         1 M11       0.045700
      9 S17         -0.3850    -3.5780    -0.2070 sh         1 M11      -0.496800
     10 C25         -1.7400    -2.5590     1.8900 c3         1 M11      -0.082100
     11 N11          0.0840    -0.5520     0.4860 ns         1 M11      -0.493900
     12 C10          1.1730    -0.4150    -0.3030 c          1 M11       0.615100
     13 O15          1.1450    -0.6070    -1.5080 o          1 M11      -0.617100
     14 C7           2.4210     0.0170     0.4380 c3         1 M11      -0.154400
     15 C4           3.6580     0.1050    -0.4400 c3         1 M11      -0.068400
     16 C3           4.8580     0.6550     0.3220 c3         1 M11      -0.103400
     17 C2           6.1230     0.8090    -0.5410 c3         1 M11       0.023500
     18 N14          6.6410    -0.4340    -1.0910 n8         1 M11      -0.991200
     19 C1           7.2000     1.5240     0.3020 c          1 M11       0.724000
     20 O20          7.0630     2.7560     0.4410 o          1 M11      -0.739000
     21 O19          8.0890     0.8140     0.8130 o          1 M11      -0.739000
     22 C32         -5.7420     0.1100    -0.4500 c3         1 M11      -0.049700
     23 C37         -6.0040    -1.3320    -0.0180 c3         1 M11      -0.077100
     24 C33         -6.9890     0.9560    -0.2040 c3         1 M11      -0.077100
     25 CAV         -1.6110    -2.3650     0.3860 c3         1 M11       0.102300
     26 H30         -4.6790     0.6620     1.3430 h1         1 M11       0.039700
     27 H32         -5.5340     0.1180    -1.5260 hc         1 M11       0.059700
     28 H12         -1.1800    -0.8650    -1.0960 h1         1 M11       0.110700
     29 H11          0.1770    -0.3450     1.4680 hn         1 M11       0.322500
     30 HAV         -2.5630    -2.5970    -0.0910 h1         1 M11       0.080700
     31 H17         -0.4580    -3.2920    -1.5120 hs         1 M11       0.232800
     32 H251        -2.5220    -1.9200     2.3020 hc         1 M11       0.043033
     33 H252        -2.0090    -3.5880     2.1250 hc         1 M11       0.043033
     34 H253        -0.8080    -2.3290     2.4090 hc         1 M11       0.043033
     35 H7C1         2.2200     0.9880     0.9030 hc         1 M11       0.055700
     36 H7C2         2.5930    -0.6770     1.2670 hc         1 M11       0.055700
     37 H4C1         3.8840    -0.8860    -0.8410 hc         1 M11       0.043200
     38 H4C2         3.4570     0.7500    -1.3000 hc         1 M11       0.043200
     39 H3C1         4.5950     1.6330     0.7350 hc         1 M11       0.040200
     40 H3C2         5.0860     0.0070     1.1770 hc         1 M11       0.040200
     41 H2           5.8620     1.4640    -1.3810 h1         1 M11       0.045700
     42 H141         7.0180    -0.9880    -0.3320 hn         1 M11       0.374500
     43 H142         5.8920    -0.9760    -1.5020 hn         1 M11       0.374500
     44 H371        -6.2170    -1.3860     1.0530 hc         1 M11       0.021867
     45 H372        -6.8710    -1.7320    -0.5460 hc         1 M11       0.021867
     46 H373        -5.1630    -1.9930    -0.2250 hc         1 M11       0.021867
     47 H331        -6.9020     1.9600    -0.6150 hc         1 M11       0.021867
     48 H332        -7.8550     0.4820    -0.6690 hc         1 M11       0.021867
     49 H333        -7.1990     1.0500     0.8630 hc         1 M11       0.021867
@<TRIPOS>BOND
     1     1     2 1   
     2     2     3 1   
     3     2     4 1   
     4     4     5 1   
     5     4    22 1   
     6     4    26 1   
     7     5     6 1   
     8     6     7 2   
     9     6     8 1   
    10     8    11 1   
    11     8    25 1   
    12     8    28 1   
    13     9    25 1   
    14     9    31 1   
    15    10    25 1   
    16    10    32 1   
    17    10    33 1   
    18    10    34 1   
    19    11    12 1   
    20    11    29 1   
    21    12    13 2   
    22    12    14 1   
    23    14    15 1   
    24    14    35 1   
    25    14    36 1   
    26    15    16 1   
    27    15    37 1   
    28    15    38 1   
    29    16    17 1   
    30    16    39 1   
    31    16    40 1   
    32    17    18 1   
    33    17    19 1   
    34    17    41 1   
    35    18    42 1   
    36    18    43 1   
    37    19    20 1   
    38    19    21 1   
    39    22    23 1   
    40    22    24 1   
    41    22    27 1   
    42    23    44 1   
    43    23    45 1   
    44    23    46 1   
    45    24    47 1   
    46    24    48 1   
    47    24    49 1   
    48    25    30 1   
@<TRIPOS>SUBSTRUCTURE
     1 M11         1 TEMP              0 ****  ****    0 ROOT
