@<TRIPOS>MOLECULE
M12
   37    36     1     0     0
SMALL
No Charge or Current Charge


@<TRIPOS>ATOM
      1 C1          -5.7800    -0.1510    -0.0050 c          1 M12       0.716000
      2 O1          -6.2390    -0.3240    -1.1240 o          1 M12      -0.744000
      3 C2          -4.4980     0.6900     0.1330 c3         1 M12      -0.203400
      4 C3          -3.2480    -0.2160     0.0070 c3         1 M12      -0.054400
      5 C4          -1.9180     0.5610     0.1360 c3         1 M12      -0.079400
      6 C5          -0.6740    -0.3450     0.0090 c3         1 M12      -0.075400
      7 C6           0.6550     0.4310     0.1380 c3         1 M12      -0.075400
      8 C7           1.8990    -0.4740     0.0120 c3         1 M12      -0.075400
      9 C8           3.2280     0.3020     0.1400 c3         1 M12      -0.074400
     10 C9           4.4730    -0.6080     0.0100 c3         1 M12      -0.072400
     11 C10          5.8330     0.1090     0.2390 c3         1 M12      -0.060700
     12 C11          6.9960    -0.9100     0.2620 c3         1 M12      -0.085600
     13 C12          6.1070     1.2290    -0.7930 c3         1 M12      -0.085600
     14 OXT         -6.2570    -0.6470     1.0050 o          1 M12      -0.744000
     15 H21C        -4.4250     1.4170    -0.6850 hc         1 M12       0.014700
     16 H22C        -4.4410     1.1420     1.1310 hc         1 M12       0.014700
     17 H31C        -3.2870    -0.9930     0.7800 hc         1 M12       0.037700
     18 H32C        -3.2720    -0.7300    -0.9620 hc         1 M12       0.037700
     19 H41C        -1.8780     1.3370    -0.6390 hc         1 M12       0.023700
     20 H42C        -1.8930     1.0730     1.1050 hc         1 M12       0.023700
     21 H51C        -0.7130    -1.1210     0.7840 hc         1 M12       0.033700
     22 H52C        -0.6990    -0.8580    -0.9600 hc         1 M12       0.033700
     23 H61C         0.6940     1.2080    -0.6370 hc         1 M12       0.031700
     24 H62C         0.6800     0.9440     1.1080 hc         1 M12       0.031700
     25 H71C         1.8590    -1.2510     0.7860 hc         1 M12       0.034700
     26 H72C         1.8750    -0.9870    -0.9580 hc         1 M12       0.034700
     27 H81C         3.2550     1.0790    -0.6330 hc         1 M12       0.035200
     28 H82C         3.2540     0.8120     1.1110 hc         1 M12       0.035200
     29 H91C         4.3810    -1.4230     0.7380 hc         1 M12       0.035700
     30 H92C         4.4730    -1.0750    -0.9830 hc         1 M12       0.035700
     31 H10          5.7980     0.5770     1.2310 hc         1 M12       0.042700
     32 H111         7.0890    -1.4170    -0.7060 hc         1 M12       0.029533
     33 H112         7.9460    -0.4090     0.4800 hc         1 M12       0.029533
     34 H113         6.8310    -1.6700     1.0340 hc         1 M12       0.029533
     35 H121         6.0810     0.8340    -1.8160 hc         1 M12       0.029533
     36 H122         5.3670     2.0330    -0.7130 hc         1 M12       0.029533
     37 H123         7.0950     1.6760    -0.6240 hc         1 M12       0.029533
@<TRIPOS>BOND
     1     1     2 1   
     2     1     3 1   
     3     1    14 1   
     4     3     4 1   
     5     3    15 1   
     6     3    16 1   
     7     4     5 1   
     8     4    17 1   
     9     4    18 1   
    10     5     6 1   
    11     5    19 1   
    12     5    20 1   
    13     6     7 1   
    14     6    21 1   
    15     6    22 1   
    16     7     8 1   
    17     7    23 1   
    18     7    24 1   
    19     8     9 1   
    20     8    25 1   
    21     8    26 1   
    22     9    10 1   
    23     9    27 1   
    24     9    28 1   
    25    10    11 1   
    26    10    29 1   
    27    10    30 1   
    28    11    12 1   
    29    11    13 1   
    30    11    31 1   
    31    12    32 1   
    32    12    33 1   
    33    12    34 1   
    34    13    35 1   
    35    13    36 1   
    36    13    37 1   
@<TRIPOS>SUBSTRUCTURE
     1 M12         1 TEMP              0 ****  ****    0 ROOT
