@<TRIPOS>MOLECULE
M12
   37    36     1     0     0
SMALL
abcg2


@<TRIPOS>ATOM
      1 C1          -5.7670    -0.0980     0.0140 c          1 M12       0.716000
      2 O1          -5.7680    -1.2970    -0.3280 o          1 M12      -0.744000
      3 C2          -4.4080     0.6020     0.1890 c3         1 M12      -0.203400
      4 C3          -3.1760    -0.2650    -0.0130 c3         1 M12      -0.054400
      5 C4          -1.8730     0.5030     0.1760 c3         1 M12      -0.079400
      6 C5          -0.6330    -0.3610    -0.0190 c3         1 M12      -0.075400
      7 C6           0.6730     0.4020     0.1680 c3         1 M12      -0.075400
      8 C7           1.9100    -0.4650    -0.0270 c3         1 M12      -0.075400
      9 C8           3.2170     0.2940     0.1650 c3         1 M12      -0.074400
     10 C9           4.4450    -0.5810    -0.0560 c3         1 M12      -0.072400
     11 C10          5.7870     0.0900     0.2430 c3         1 M12      -0.060700
     12 C11          6.9230    -0.9200     0.1080 c3         1 M12      -0.085600
     13 C12          6.0420     1.3020    -0.6480 c3         1 M12      -0.085600
     14 OXT         -6.7770     0.6080     0.2280 o          1 M12      -0.744000
     15 H21C        -4.3760     1.4530    -0.5020 hc         1 M12       0.014700
     16 H22C        -4.3820     1.0530     1.1890 hc         1 M12       0.014700
     17 H31C        -3.1990    -1.1080     0.6840 hc         1 M12       0.037700
     18 H32C        -3.1920    -0.7040    -1.0150 hc         1 M12       0.037700
     19 H41C        -1.8410     1.3450    -0.5250 hc         1 M12       0.023700
     20 H42C        -1.8510     0.9470     1.1780 hc         1 M12       0.023700
     21 H51C        -0.6630    -1.2020     0.6830 hc         1 M12       0.033700
     22 H52C        -0.6520    -0.8040    -1.0210 hc         1 M12       0.033700
     23 H61C         0.7030     1.2430    -0.5340 hc         1 M12       0.031700
     24 H62C         0.6940     0.8450     1.1700 hc         1 M12       0.031700
     25 H71C         1.8750    -1.3080     0.6710 hc         1 M12       0.034700
     26 H72C         1.8900    -0.9040    -1.0310 hc         1 M12       0.034700
     27 H81C         3.2340     1.1490    -0.5180 hc         1 M12       0.035200
     28 H82C         3.2470     0.7140     1.1770 hc         1 M12       0.035200
     29 H91C         4.3580    -1.4720     0.5760 hc         1 M12       0.035700
     30 H92C         4.4510    -0.9460    -1.0910 hc         1 M12       0.035700
     31 H10          5.7630     0.4340     1.2840 hc         1 M12       0.042700
     32 H111         6.9990    -1.2880    -0.9180 hc         1 M12       0.029533
     33 H112         7.8860    -0.4770     0.3700 hc         1 M12       0.029533
     34 H113         6.7680    -1.7830     0.7580 hc         1 M12       0.029533
     35 H121         6.0390     1.0160    -1.7030 hc         1 M12       0.029533
     36 H122         5.2880     2.0780    -0.5130 hc         1 M12       0.029533
     37 H123         7.0130     1.7500    -0.4300 hc         1 M12       0.029533
@<TRIPOS>BOND
     1     1     2 1   
     2     1     3 1   
     3     1    14 1   
     4     3     4 1   
     5     3    15 1   
     6     3    16 1   
     7     4     5 1   
     8     4    17 1   
     9     4    18 1   
    10     5     6 1   
    11     5    19 1   
    12     5    20 1   
    13     6     7 1   
    14     6    21 1   
    15     6    22 1   
    16     7     8 1   
    17     7    23 1   
    18     7    24 1   
    19     8     9 1   
    20     8    25 1   
    21     8    26 1   
    22     9    10 1   
    23     9    27 1   
    24     9    28 1   
    25    10    11 1   
    26    10    29 1   
    27    10    30 1   
    28    11    12 1   
    29    11    13 1   
    30    11    31 1   
    31    12    32 1   
    32    12    33 1   
    33    12    34 1   
    34    13    35 1   
    35    13    36 1   
    36    13    37 1   
@<TRIPOS>SUBSTRUCTURE
     1 M12         1 TEMP              0 ****  ****    0 ROOT
