@<TRIPOS>MOLECULE
M13
   48    49     1     0     0
SMALL
bcc


@<TRIPOS>ATOM
      1 O10         -1.9050    -2.1700    -3.2080 oh         1 M13      -0.589800
      2 C12         -1.7660    -1.1650    -2.2330 c3         1 M13       0.143400
      3 C11         -1.5150    -1.7300    -0.8460 c6         1 M13       0.087100
      4 O11         -0.3070    -2.4650    -0.9140 os         1 M13      -0.446600
      5 C7          -0.0080    -3.1460     0.2780 c6         1 M13       0.314900
      6 O7           1.1470    -3.8740     0.0900 os         1 M13      -0.411600
      7 CM           1.0260    -4.9680    -0.7980 c3         1 M13       0.131700
      8 C10         -1.3770    -0.6360     0.2170 c6         1 M13       0.129100
      9 O9          -2.5730     0.0880     0.3690 oh         1 M13      -0.578800
     10 C9          -0.9930    -1.2450     1.5640 c6         1 M13       0.148100
     11 C8           0.2310    -2.1560     1.4160 c6         1 M13       0.108100
     12 O8           1.3360    -1.3240     1.1700 oh         1 M13      -0.587800
     13 O1          -2.1010    -1.9900     2.0260 os         1 M13      -0.433600
     14 C1          -2.1820    -2.2040     3.4060 c6         1 M13       0.314900
     15 O6          -2.2540    -1.0220     4.1370 os         1 M13      -0.405600
     16 C2          -3.4140    -3.0770     3.6370 c6         1 M13       0.087100
     17 O2          -3.4640    -3.5010     4.9810 oh         1 M13      -0.596800
     18 C3          -4.6900    -2.2850     3.3620 c6         1 M13       0.159100
     19 O3          -5.8340    -3.0570     3.6270 oh         1 M13      -0.574800
     20 C4          -4.6880    -0.9680     4.1380 c6         1 M13       0.094100
     21 O4          -5.8020    -0.2190     3.7100 oh         1 M13      -0.577800
     22 C5          -3.3840    -0.2030     3.8730 c6         1 M13       0.109100
     23 C6          -3.2550     1.0110     4.7670 c3         1 M13       0.145400
     24 O5          -2.1020     1.7310     4.4000 oh         1 M13      -0.584800
     25 HO10        -1.0840    -2.6710    -3.2350 ho         1 M13       0.413000
     26 H121        -0.9610    -0.4610    -2.4870 h1         1 M13       0.049200
     27 H122        -2.7000    -0.6010    -2.2240 h1         1 M13       0.049200
     28 H11         -2.3510    -2.3990    -0.5830 h1         1 M13       0.070700
     29 H7          -0.8520    -3.8090     0.5430 h2         1 M13       0.037700
     30 HM1          1.9360    -5.5580    -0.7130 h1         1 M13       0.036700
     31 HM2          0.9130    -4.6490    -1.8370 h1         1 M13       0.036700
     32 HM3          0.1730    -5.6020    -0.5350 h1         1 M13       0.036700
     33 H10         -0.5530     0.0230    -0.0820 h1         1 M13       0.064700
     34 HO9         -2.5400     0.8600    -0.2040 ho         1 M13       0.407000
     35 H9          -0.7530    -0.4330     2.2610 h1         1 M13       0.095700
     36 H8           0.3690    -2.7310     2.3430 h1         1 M13       0.044700
     37 HO8          2.1100    -1.8770     1.0200 ho         1 M13       0.427000
     38 H1          -1.2870    -2.7160     3.7840 h2         1 M13       0.065700
     39 H2          -3.3730    -3.9360     2.9550 h1         1 M13       0.062700
     40 HO2         -2.8940    -4.2680     5.0890 ho         1 M13       0.411000
     41 H3          -4.7180    -2.0490     2.2930 h1         1 M13       0.108700
     42 HO3         -5.7390    -3.4250     4.5130 ho         1 M13       0.409000
     43 H4          -4.7550    -1.1860     5.2150 h1         1 M13       0.047700
     44 HO4         -6.0650     0.3800     4.4130 ho         1 M13       0.402000
     45 H5          -3.3810     0.1280     2.8260 h1         1 M13       0.089700
     46 H61         -3.2160     0.6810     5.8150 h1         1 M13       0.023200
     47 H62         -4.1570     1.6240     4.6580 h1         1 M13       0.023200
     48 HO5         -2.0430     2.5060     4.9650 ho         1 M13       0.403000
@<TRIPOS>BOND
     1     1     2 1   
     2     1    25 1   
     3     2     3 1   
     4     2    26 1   
     5     2    27 1   
     6     3     4 1   
     7     3     8 1   
     8     3    28 1   
     9     4     5 1   
    10     5     6 1   
    11     5    11 1   
    12     5    29 1   
    13     6     7 1   
    14     7    30 1   
    15     7    31 1   
    16     7    32 1   
    17     8     9 1   
    18     8    10 1   
    19     8    33 1   
    20     9    34 1   
    21    10    11 1   
    22    10    13 1   
    23    10    35 1   
    24    11    12 1   
    25    11    36 1   
    26    12    37 1   
    27    13    14 1   
    28    14    15 1   
    29    14    16 1   
    30    14    38 1   
    31    15    22 1   
    32    16    17 1   
    33    16    18 1   
    34    16    39 1   
    35    17    40 1   
    36    18    19 1   
    37    18    20 1   
    38    18    41 1   
    39    19    42 1   
    40    20    21 1   
    41    20    22 1   
    42    20    43 1   
    43    21    44 1   
    44    22    23 1   
    45    22    45 1   
    46    23    24 1   
    47    23    46 1   
    48    23    47 1   
    49    24    48 1   
@<TRIPOS>SUBSTRUCTURE
     1 M13         1 TEMP              0 ****  ****    0 ROOT
