@<TRIPOS>MOLECULE
M13
   48    49     1     0     0
SMALL
No Charge or Current Charge


@<TRIPOS>ATOM
      1 O10         -1.4210    -2.0030    -3.3630 oh         1 M13      -0.712000
      2 C12         -1.5930    -0.9850    -2.3670 c3         1 M13       0.166600
      3 C11         -1.4410    -1.5890    -0.9400 c6         1 M13       0.110300
      4 O11         -0.3440    -2.5410    -0.9970 os         1 M13      -0.493000
      5 C7          -0.1370    -3.2600     0.2370 c6         1 M13       0.361300
      6 O7           0.9520    -4.1750     0.0270 os         1 M13      -0.458000
      7 CM           0.7030    -5.2610    -0.8820 c3         1 M13       0.154900
      8 C10         -1.1760    -0.5030     0.1490 c6         1 M13       0.152300
      9 O9          -2.2860     0.4210     0.2250 oh         1 M13      -0.701000
     10 C9          -0.8980    -1.2010     1.5240 c6         1 M13       0.171300
     11 C8           0.2490    -2.2520     1.3720 c6         1 M13       0.131300
     12 O8           1.5120    -1.6070     1.0780 oh         1 M13      -0.710000
     13 O1          -2.1140    -1.8180     2.0320 os         1 M13      -0.480000
     14 C1          -2.1340    -2.0830     3.4500 c6         1 M13       0.361300
     15 O6          -2.2780    -0.8290     4.1510 os         1 M13      -0.452000
     16 C2          -3.3090    -3.0570     3.8230 c6         1 M13       0.110300
     17 O2          -3.2860    -3.4660     5.2200 oh         1 M13      -0.719000
     18 C3          -4.6640    -2.3520     3.5230 c6         1 M13       0.182300
     19 O3          -5.7450    -3.1980     3.9530 oh         1 M13      -0.637000
     20 C4          -4.7450    -0.9710     4.2480 c6         1 M13       0.117300
     21 O4          -5.9850    -0.3100     3.9240 oh         1 M13      -0.700000
     22 C5          -3.5080    -0.1060     3.8580 c6         1 M13       0.132300
     23 C6          -3.4620     1.2640     4.6080 c3         1 M13       0.168600
     24 O5          -2.3160     2.0620     4.2520 oh         1 M13      -0.707000
     25 HO10        -0.8000    -2.6390    -2.9280 ho         1 M13       0.512000
     26 H121        -0.8350    -0.2010    -2.4960 h1         1 M13       0.049200
     27 H122        -2.5810    -0.5110    -2.4550 h1         1 M13       0.049200
     28 H11         -2.3670    -2.1320    -0.6960 h1         1 M13       0.070700
     29 H7          -1.0480    -3.8120     0.5140 h2         1 M13       0.037700
     30 HM1          1.5830    -5.9140    -0.9450 h1         1 M13       0.036700
     31 HM2          0.4850    -4.8880    -1.8910 h1         1 M13       0.036700
     32 HM3         -0.1480    -5.8660    -0.5440 h1         1 M13       0.036700
     33 H10         -0.2660     0.0440    -0.1390 h1         1 M13       0.064700
     34 HO9         -2.0890     1.0520     0.9550 ho         1 M13       0.506000
     35 H9          -0.5690    -0.4290     2.2360 h1         1 M13       0.095700
     36 H8           0.3440    -2.8180     2.3080 h1         1 M13       0.044700
     37 HO8          1.9740    -2.2270     0.4640 ho         1 M13       0.526000
     38 H1          -1.1880    -2.5570     3.7490 h2         1 M13       0.065700
     39 H2          -3.2290    -3.9420     3.1730 h1         1 M13       0.062700
     40 HO2         -2.4280    -3.9240     5.3870 ho         1 M13       0.510000
     41 H3          -4.7260    -2.1740     2.4370 h1         1 M13       0.108700
     42 HO3         -5.3750    -3.6700     4.7360 ho         1 M13       0.448000
     43 H4          -4.7000    -1.1480     5.3340 h1         1 M13       0.047700
     44 HO4         -6.6790    -1.0110     3.9710 ho         1 M13       0.501000
     45 H5          -3.5530     0.1090     2.7810 h1         1 M13       0.089700
     46 H61         -3.4620     1.0640     5.6880 h1         1 M13       0.023200
     47 H62         -4.3830     1.8170     4.3780 h1         1 M13       0.023200
     48 HO5         -2.3260     2.8540     4.8390 ho         1 M13       0.502000
@<TRIPOS>BOND
     1     1     2 1   
     2     1    25 1   
     3     2     3 1   
     4     2    26 1   
     5     2    27 1   
     6     3     4 1   
     7     3     8 1   
     8     3    28 1   
     9     4     5 1   
    10     5     6 1   
    11     5    11 1   
    12     5    29 1   
    13     6     7 1   
    14     7    30 1   
    15     7    31 1   
    16     7    32 1   
    17     8     9 1   
    18     8    10 1   
    19     8    33 1   
    20     9    34 1   
    21    10    11 1   
    22    10    13 1   
    23    10    35 1   
    24    11    12 1   
    25    11    36 1   
    26    12    37 1   
    27    13    14 1   
    28    14    15 1   
    29    14    16 1   
    30    14    38 1   
    31    15    22 1   
    32    16    17 1   
    33    16    18 1   
    34    16    39 1   
    35    17    40 1   
    36    18    19 1   
    37    18    20 1   
    38    18    41 1   
    39    19    42 1   
    40    20    21 1   
    41    20    22 1   
    42    20    43 1   
    43    21    44 1   
    44    22    23 1   
    45    22    45 1   
    46    23    24 1   
    47    23    46 1   
    48    23    47 1   
    49    24    48 1   
@<TRIPOS>SUBSTRUCTURE
     1 M13         1 TEMP              0 ****  ****    0 ROOT
