@<TRIPOS>MOLECULE
M14
   47    49     1     0     0
SMALL
No Charge or Current Charge


@<TRIPOS>ATOM
      1 C            4.0950     0.4460    -0.2850 ca         1 M14       0.050000
      2 C1           4.4260    -0.8550     0.1570 ca         1 M14      -0.160000
      3 C2           5.7550    -1.3120     0.1170 ca         1 M14       0.019000
      4 C3           6.7760    -0.4710    -0.3670 ca         1 M14      -0.300500
      5 C4           6.4580     0.8280    -0.8070 ca         1 M14       0.039000
      6 C5           5.1280     1.2820    -0.7650 ca         1 M14       0.029000
      7 C6          -4.5030     1.4610     0.5800 ca         1 M14       0.176100
      8 C7          -4.5730     2.8070     0.2010 ca         1 M14      -0.162000
      9 C8          -3.4050     3.4900    -0.1650 ca         1 M14       0.186000
     10 C9          -2.1640     2.8360    -0.1460 ca         1 M14      -0.229000
     11 C10         -2.0900     1.4840     0.2490 ca         1 M14       0.181100
     12 C11         -3.2600     0.8040     0.6150 ca         1 M14      -0.215000
     13 C12         -5.8220    -2.3710    -0.9350 ca         1 M14       0.120000
     14 C13         -5.5390    -1.0300    -0.6290 ca         1 M14      -0.096000
     15 C14         -5.9140    -0.5030     0.6220 ca         1 M14       0.100100
     16 C15         -6.5900    -1.3120     1.5510 ca         1 M14      -0.078000
     17 C16         -6.8750    -2.6580     1.2440 ca         1 M14       0.007000
     18 C17         -6.4850    -3.1860    -0.0030 ca         1 M14      -0.066000
     19 Cl1         -3.4940     5.1770    -0.6500 cl         1 M14      -0.189000
     20 O19         -0.9010     0.7880     0.2970 os         1 M14      -0.307100
     21 C20          0.3640     1.3930    -0.0600 c3         1 M14       0.072600
     22 C21          1.5450     0.4060     0.0740 c          1 M14       0.613100
     23 N            2.7690     0.9650    -0.2670 ns         1 M14      -0.153000
     24 O22          1.4010    -0.7550     0.4430 o          1 M14      -0.522100
     25 S            8.4720    -1.0370    -0.4220 sy         1 M14       1.135600
     26 N23          8.5850    -1.5940    -1.9550 n8         1 M14      -1.005100
     27 O24          9.3910     0.0990    -0.3610 o          1 M14      -0.541500
     28 O25          8.6290    -2.2350     0.3990 o          1 M14      -0.541500
     29 Cl2          4.7730     2.9180    -1.3270 cl         1 M14      -0.199000
     30 C27         -7.5600    -3.4870     2.1980 cg         1 M14       0.315000
     31 N28         -8.1170    -4.1680     2.9650 n1         1 M14      -0.429000
     32 H1           3.6710    -1.5330     0.5420 ha         1 M14       0.158000
     33 H2           5.9830    -2.3190     0.4660 ha         1 M14       0.146000
     34 H4           7.2340     1.4920    -1.1840 ha         1 M14       0.152000
     35 H7          -5.5300     3.3190     0.1850 ha         1 M14       0.152000
     36 H9          -1.2780     3.3920    -0.4340 ha         1 M14       0.133000
     37 H11         -3.1960    -0.2340     0.9290 ha         1 M14       0.150000
     38 H13         -5.0350    -0.4070    -1.3630 ha         1 M14       0.149000
     39 H15         -6.8860    -0.8920     2.5100 ha         1 M14       0.148000
     40 H17         -6.6990    -4.2220    -0.2530 ha         1 M14       0.147000
     41 H20          0.3450     1.7440    -1.0990 h1         1 M14       0.060200
     42 H20A         0.5780     2.2520     0.5880 h1         1 M14       0.060200
     43 HN           2.7140     1.9320    -0.5610 hn         1 M14       0.166000
     44 HN23         7.6190    -1.8220    -2.1750 hn         1 M14       0.475000
     45 HN2A         9.0190    -2.5010    -1.7990 hn         1 M14       0.475000
     46 O           -5.6600     0.8110     0.9450 os         1 M14      -0.245200
     47 Cl          -5.3470    -3.0300    -2.4950 cl         1 M14      -0.173000
@<TRIPOS>BOND
     1     1     2 ar  
     2     1     6 ar  
     3     1    23 1   
     4     2     3 ar  
     5     2    32 1   
     6     3     4 ar  
     7     3    33 1   
     8     4     5 ar  
     9     4    25 1   
    10     5     6 ar  
    11     5    34 1   
    12     6    29 1   
    13     7     8 ar  
    14     7    12 ar  
    15     7    46 1   
    16     8     9 ar  
    17     8    35 1   
    18     9    10 ar  
    19     9    19 1   
    20    10    11 ar  
    21    10    36 1   
    22    11    12 ar  
    23    11    20 1   
    24    12    37 1   
    25    13    14 ar  
    26    13    18 ar  
    27    13    47 1   
    28    14    15 ar  
    29    14    38 1   
    30    15    16 ar  
    31    15    46 1   
    32    16    17 ar  
    33    16    39 1   
    34    17    18 ar  
    35    17    30 1   
    36    18    40 1   
    37    20    21 1   
    38    21    22 1   
    39    21    41 1   
    40    21    42 1   
    41    22    23 1   
    42    22    24 2   
    43    23    43 1   
    44    25    26 1   
    45    25    27 2   
    46    25    28 2   
    47    26    44 1   
    48    26    45 1   
    49    30    31 3   
@<TRIPOS>SUBSTRUCTURE
     1 M14         1 TEMP              0 ****  ****    0 ROOT
