@<TRIPOS>MOLECULE
M14
   47    49     1     0     0
SMALL
bcc


@<TRIPOS>ATOM
      1 C            3.7950     0.3630    -0.2380 ca         1 M14       0.142600
      2 C1           3.9700    -1.0220    -0.2040 ca         1 M14      -0.178000
      3 C2           5.2370    -1.5780    -0.1950 ca         1 M14       0.001000
      4 C3           6.3520    -0.7590    -0.2250 ca         1 M14      -0.300500
      5 C4           6.2140     0.6210    -0.2610 ca         1 M14       0.021000
      6 C5           4.9490     1.1660    -0.2700 ca         1 M14      -0.062600
      7 C6          -4.5130     1.5250     0.1250 ca         1 M14       0.176100
      8 C7          -4.5690     2.9120     0.0000 ca         1 M14      -0.180000
      9 C8          -3.3780     3.5910    -0.1380 ca         1 M14       0.094400
     10 C9          -2.1430     2.9540    -0.1620 ca         1 M14      -0.247000
     11 C10         -2.1240     1.5700    -0.0360 ca         1 M14       0.181100
     12 C11         -3.3100     0.8460     0.1100 ca         1 M14      -0.233000
     13 C12         -5.9120    -2.5290    -0.8940 ca         1 M14       0.028400
     14 C13         -5.8040    -1.1480    -0.9190 ca         1 M14      -0.114000
     15 C14         -5.7730    -0.4580     0.2850 ca         1 M14       0.100100
     16 C15         -5.8380    -1.1190     1.4980 ca         1 M14      -0.096000
     17 C16         -5.9480    -2.5070     1.4890 ca         1 M14       0.007000
     18 C17         -5.9840    -3.2280     0.2990 ca         1 M14      -0.084000
     19 CL1         -3.4140     5.3140    -0.2950 cl         1 M14      -0.097400
     20 O19         -1.0000     0.8320    -0.0440 os         1 M14      -0.283900
     21 C20          0.2290     1.4880    -0.1720 c3         1 M14       0.049400
     22 C21          1.3170     0.4290    -0.1500 c          1 M14       0.680100
     23 N            2.5590     0.9860    -0.2450 ns         1 M14      -0.479100
     24 O22          1.0840    -0.7530    -0.0610 o          1 M14      -0.522100
     25 S            7.9770    -1.4520    -0.1910 sy         1 M14       1.277200
     26 N23          8.4700    -1.1770    -1.7420 n8         1 M14      -0.894700
     27 O24          8.8340    -0.6290     0.6490 o          1 M14      -0.612300
     28 O25          7.8460    -2.8670     0.1260 o          1 M14      -0.612300
     29 CL2          4.8000     2.8910    -0.3120 cl         1 M14      -0.107400
     30 C27         -6.0240    -3.2100     2.7300 cg         1 M14       0.225800
     31 N28         -6.0830    -3.7780     3.7300 n1         1 M14      -0.339800
     32 H1           3.1160    -1.6770    -0.1820 ha         1 M14       0.176000
     33 H2           5.3360    -2.6530    -0.1640 ha         1 M14       0.164000
     34 H4           7.0770     1.2730    -0.2830 ha         1 M14       0.170000
     35 H7          -5.5190     3.4300     0.0130 ha         1 M14       0.170000
     36 H9          -1.2420     3.5380    -0.2760 ha         1 M14       0.151000
     37 H11         -3.2540    -0.2300     0.2090 ha         1 M14       0.168000
     38 H13         -5.7520    -0.6110    -1.8570 ha         1 M14       0.167000
     39 H15         -5.8100    -0.5670     2.4280 ha         1 M14       0.166000
     40 H17         -6.0680    -4.3050     0.3090 ha         1 M14       0.165000
     41 H20          0.2950     2.0500    -1.1120 h1         1 M14       0.060200
     42 H20A         0.3980     2.1970     0.6480 h1         1 M14       0.060200
     43 HN           2.5830     1.9950    -0.3000 hn         1 M14       0.332500
     44 HN23         8.0270    -1.7970    -2.4130 hn         1 M14       0.419800
     45 HN2A         9.4810    -1.2350    -1.8260 hn         1 M14       0.419800
     46 O           -5.7170     0.9060     0.2740 os         1 M14      -0.245200
     47 CL          -5.9590    -3.3970    -2.3830 cl         1 M14      -0.081400
@<TRIPOS>BOND
     1     1     2 ar  
     2     1     6 ar  
     3     1    23 1   
     4     2     3 ar  
     5     2    32 1   
     6     3     4 ar  
     7     3    33 1   
     8     4     5 ar  
     9     4    25 1   
    10     5     6 ar  
    11     5    34 1   
    12     6    29 1   
    13     7     8 ar  
    14     7    12 ar  
    15     7    46 1   
    16     8     9 ar  
    17     8    35 1   
    18     9    10 ar  
    19     9    19 1   
    20    10    11 ar  
    21    10    36 1   
    22    11    12 ar  
    23    11    20 1   
    24    12    37 1   
    25    13    14 ar  
    26    13    18 ar  
    27    13    47 1   
    28    14    15 ar  
    29    14    38 1   
    30    15    16 ar  
    31    15    46 1   
    32    16    17 ar  
    33    16    39 1   
    34    17    18 ar  
    35    17    30 1   
    36    18    40 1   
    37    20    21 1   
    38    21    22 1   
    39    21    41 1   
    40    21    42 1   
    41    22    23 1   
    42    22    24 2   
    43    23    43 1   
    44    25    26 1   
    45    25    27 2   
    46    25    28 2   
    47    26    44 1   
    48    26    45 1   
    49    30    31 3   
@<TRIPOS>SUBSTRUCTURE
     1 M14         1 TEMP              0 ****  ****    0 ROOT
