@<TRIPOS>MOLECULE
M15
   35    36     1     0     0
SMALL
No Charge or Current Charge


@<TRIPOS>ATOM
      1 F24          1.9770     0.6540     2.3930 f          1 M15      -0.158000
      2 C2           2.4300     0.6910     1.1200 ca         1 M15       0.187000
      3 C4           3.7170     0.2070     0.8400 ca         1 M15      -0.133000
      4 C6           4.1990     0.2320    -0.4760 ca         1 M15       0.218000
      5 I23          6.1840    -0.5150    -0.9110 i          1 M15      -0.323000
      6 C5           3.3990     0.7390    -1.5120 ca         1 M15      -0.104000
      7 C3           2.1090     1.2240    -1.2330 ca         1 M15      -0.085000
      8 C1           1.6160     1.2050     0.0880 ca         1 M15      -0.126300
      9 C7           0.2170     1.7280     0.3790 c3         1 M15       0.150300
     10 N8          -0.7820     0.6770     0.2020 ns         1 M15      -0.512900
     11 C9          -2.1290     0.8370     0.4330 c          1 M15       0.643700
     12 O16         -2.5680     1.9070     0.8310 o          1 M15      -0.557100
     13 C10         -2.9780    -0.3990     0.2280 ca         1 M15      -0.215600
     14 C12         -2.3850    -1.6840     0.3060 ca         1 M15      -0.047000
     15 C14         -3.1580    -2.8410     0.1330 ca         1 M15      -0.191000
     16 C15         -4.5280    -2.7370    -0.1190 ca         1 M15       0.181000
     17 Cl2         -5.4930    -4.1900    -0.3340 cl         1 M15      -0.235000
     18 C13         -5.1340    -1.4800    -0.2020 ca         1 M15      -0.224000
     19 C11         -4.3710    -0.3020    -0.0310 ca         1 M15       0.227100
     20 O17         -4.9590     0.9440    -0.1520 os         1 M15      -0.270100
     21 C18         -6.3710     1.1210    -0.4260 c3         1 M15      -0.004400
     22 C19         -6.7960     2.6140    -0.5340 c          1 M15       0.731000
     23 O20         -5.9520     3.4950    -0.4210 o          1 M15      -0.705000
     24 O21         -7.9810     2.8490    -0.7330 o          1 M15      -0.705000
     25 H1           4.3360    -0.1880     1.6390 ha         1 M15       0.142000
     26 H2           3.7790     0.7540    -2.5300 ha         1 M15       0.126000
     27 H3           1.4940     1.6140    -2.0420 ha         1 M15       0.122000
     28 H4           0.1590     2.1120     1.4070 h1         1 M15       0.073200
     29 H5          -0.0160     2.5600    -0.3000 h1         1 M15       0.073200
     30 H6          -0.4780    -0.2250    -0.1400 hn         1 M15       0.312500
     31 H7          -1.3260    -1.8050     0.5240 ha         1 M15       0.107000
     32 H8          -2.6930    -3.8210     0.2010 ha         1 M15       0.117000
     33 H9          -6.1990    -1.4390    -0.4050 ha         1 M15       0.143000
     34 H10         -6.6350     0.6380    -1.3750 h1         1 M15       0.022200
     35 H11         -6.9710     0.6630     0.3710 h1         1 M15       0.022200
@<TRIPOS>BOND
     1     1     2 1   
     2     2     3 ar  
     3     2     8 ar  
     4     3     4 ar  
     5     3    25 1   
     6     4     5 1   
     7     4     6 ar  
     8     6     7 ar  
     9     6    26 1   
    10     7     8 ar  
    11     7    27 1   
    12     8     9 1   
    13     9    10 1   
    14     9    28 1   
    15     9    29 1   
    16    10    11 1   
    17    10    30 1   
    18    11    12 2   
    19    11    13 1   
    20    13    14 ar  
    21    13    19 ar  
    22    14    15 ar  
    23    14    31 1   
    24    15    16 ar  
    25    15    32 1   
    26    16    17 1   
    27    16    18 ar  
    28    18    19 ar  
    29    18    33 1   
    30    19    20 1   
    31    20    21 1   
    32    21    22 1   
    33    21    34 1   
    34    21    35 1   
    35    22    23 1   
    36    22    24 1   
@<TRIPOS>SUBSTRUCTURE
     1 M15         1 TEMP              0 ****  ****    0 ROOT
