@<TRIPOS>MOLECULE
M15
   35    36     1     0     0
SMALL
bcc


@<TRIPOS>ATOM
      1 F24          0.8310     0.2010     1.7210 f          1 M15      -0.122900
      2 C2           1.7390     0.4460     0.7660 ca         1 M15       0.151900
      3 C4           2.9750    -0.1580     0.8780 ca         1 M15      -0.151000
      4 C6           3.9170     0.1030    -0.1070 ca         1 M15       0.080900
      5 I23          5.8110    -0.7970     0.0260 i          1 M15      -0.185900
      6 C5           3.6280     0.9430    -1.1710 ca         1 M15      -0.122000
      7 C3           2.3680     1.5230    -1.2440 ca         1 M15      -0.103000
      8 C1           1.3950     1.2910    -0.2800 ca         1 M15      -0.126300
      9 C7           0.0310     1.9220    -0.3700 c3         1 M15       0.150300
     10 N8          -1.0170     0.9320    -0.4490 ns         1 M15      -0.579900
     11 C9          -1.9910     0.7880     0.4680 c          1 M15       0.710700
     12 O16         -2.1700     1.5480     1.4030 o          1 M15      -0.557100
     13 C10         -2.8310    -0.4350     0.2680 ca         1 M15      -0.215600
     14 C12         -2.2380    -1.6860     0.3170 ca         1 M15      -0.065000
     15 C14         -2.9890    -2.8510     0.2260 ca         1 M15      -0.209000
     16 C15         -4.3560    -2.7260     0.0710 ca         1 M15       0.089400
     17 CL2         -5.3300    -4.1550    -0.0500 cl         1 M15      -0.143400
     18 C13         -4.9860    -1.4920     0.0040 ca         1 M15      -0.242000
     19 C11         -4.2210    -0.3300     0.1030 ca         1 M15       0.227100
     20 O17         -4.7200     0.9030     0.0240 os         1 M15      -0.246900
     21 C18         -6.1130     1.0720    -0.1830 c3         1 M15      -0.027600
     22 C19         -6.4670     2.5620    -0.3270 c          1 M15       0.941600
     23 O20         -5.5480     3.3900    -0.3220 o          1 M15      -0.810300
     24 O21         -7.6910     2.7650    -0.4480 o          1 M15      -0.810300
     25 H1           3.1820    -0.8080     1.7180 ha         1 M15       0.160000
     26 H2           4.3600     1.1500    -1.9390 ha         1 M15       0.144000
     27 H3           2.1380     2.1750    -2.0770 ha         1 M15       0.140000
     28 H4          -0.1590     2.5560     0.4950 h1         1 M15       0.073200
     29 H5          -0.0030     2.5690    -1.2490 h1         1 M15       0.073200
     30 H6          -0.9840     0.2860    -1.2210 hn         1 M15       0.312500
     31 H7          -1.1660    -1.7650     0.4470 ha         1 M15       0.125000
     32 H8          -2.5150    -3.8210     0.2780 ha         1 M15       0.135000
     33 H9          -6.0570    -1.4490    -0.1270 ha         1 M15       0.161000
     34 H10         -6.4320     0.5440    -1.0890 h1         1 M15       0.022200
     35 H11         -6.6780     0.6450     0.6550 h1         1 M15       0.022200
@<TRIPOS>BOND
     1     1     2 1   
     2     2     3 ar  
     3     2     8 ar  
     4     3     4 ar  
     5     3    25 1   
     6     4     5 1   
     7     4     6 ar  
     8     6     7 ar  
     9     6    26 1   
    10     7     8 ar  
    11     7    27 1   
    12     8     9 1   
    13     9    10 1   
    14     9    28 1   
    15     9    29 1   
    16    10    11 1   
    17    10    30 1   
    18    11    12 2   
    19    11    13 1   
    20    13    14 ar  
    21    13    19 ar  
    22    14    15 ar  
    23    14    31 1   
    24    15    16 ar  
    25    15    32 1   
    26    16    17 1   
    27    16    18 ar  
    28    18    19 ar  
    29    18    33 1   
    30    19    20 1   
    31    20    21 1   
    32    21    22 1   
    33    21    34 1   
    34    21    35 1   
    35    22    23 1   
    36    22    24 1   
@<TRIPOS>SUBSTRUCTURE
     1 M15         1 TEMP              0 ****  ****    0 ROOT
