@<TRIPOS>MOLECULE
M16
   40    42     1     0     0
SMALL
bcc


@<TRIPOS>ATOM
      1 N29        123.4250   247.8030   353.5870 n8         1 M16      -0.879800
      2 C28        123.5930   249.1830   354.0060 c3         1 M16       0.152800
      3 C27        123.7520   249.2880   355.5220 c3         1 M16      -0.030100
      4 C24        122.5570   248.7840   356.2770 ca         1 M16      -0.058300
      5 C23        122.4940   247.4770   356.7510 ca         1 M16      -0.120000
      6 C22        121.3780   247.0120   357.4290 ca         1 M16      -0.115000
      7 C25        121.4590   249.6110   356.5040 ca         1 M16      -0.120000
      8 C26        120.3400   249.1510   357.1810 ca         1 M16      -0.115000
      9 C21        120.2770   247.8400   357.6550 cp         1 M16      -0.040000
     10 C08        119.0860   247.3470   358.3740 cp         1 M16      -0.009000
     11 C09        118.6620   246.0430   358.2320 ca         1 M16      -0.179300
     12 C07        118.3550   248.2090   359.2210 ca         1 M16      -0.140000
     13 C06        117.2460   247.7580   359.8900 ca         1 M16      -0.096000
     14 C05        116.8030   246.4290   359.7520 ca         1 M16      -0.189300
     15 C04        115.6510   245.9090   360.4210 ca         1 M16       0.007700
     16 C11        114.8380   246.7750   361.3310 c3         1 M16      -0.055800
     17 C03        115.3200   244.6080   360.2030 ca         1 M16      -0.298300
     18 C02        116.1150   243.8020   359.3310 ca         1 M16       0.685200
     19 N02        115.7390   242.5190   359.1010 nv         1 M16      -0.961500
     20 N01        117.1770   244.2580   358.7120 nb         1 M16      -0.761000
     21 C10        117.5270   245.5520   358.9090 ca         1 M16       0.455600
     22 H1         123.3160   247.7680   352.5810 hn         1 M16       0.335800
     23 H2         124.2720   247.2850   353.7880 hn         1 M16       0.335800
     24 H4         124.4530   249.6850   353.5410 h1         1 M16       0.028700
     25 H5         122.7060   249.7460   353.7030 h1         1 M16       0.028700
     26 H6         124.6470   248.7360   355.8270 hc         1 M16       0.044200
     27 H7         123.9350   250.3360   355.7730 hc         1 M16       0.044200
     28 H8         123.3360   246.8120   356.6030 ha         1 M16       0.127000
     29 H9         121.3740   245.9960   357.8050 ha         1 M16       0.131500
     30 H10        121.4760   250.6340   356.1460 ha         1 M16       0.127000
     31 H11        119.5010   249.8210   357.3250 ha         1 M16       0.131500
     32 H12        119.1830   245.3610   357.5710 ha         1 M16       0.149000
     33 H13        118.6820   249.2310   359.3650 ha         1 M16       0.132000
     34 H14        116.7120   248.4380   360.5400 ha         1 M16       0.127000
     35 H15        114.4620   247.6550   360.8060 hc         1 M16       0.048033
     36 H16        113.9840   246.2310   361.7310 hc         1 M16       0.048033
     37 H17        115.4340   247.1360   362.1710 hc         1 M16       0.048033
     38 H18        114.4530   244.1720   360.6860 ha         1 M16       0.135000
     39 H19        116.4090   241.9090   358.6650 hn         1 M16       0.422800
     40 H20        115.0990   242.0760   359.7370 hn         1 M16       0.422800
@<TRIPOS>BOND
     1     1     2 1   
     2     1    22 1   
     3     1    23 1   
     4     2     3 1   
     5     2    24 1   
     6     2    25 1   
     7     3     4 1   
     8     3    26 1   
     9     3    27 1   
    10     4     5 ar  
    11     4     7 ar  
    12     5     6 ar  
    13     5    28 1   
    14     6     9 ar  
    15     6    29 1   
    16     7     8 ar  
    17     7    30 1   
    18     8     9 ar  
    19     8    31 1   
    20     9    10 1   
    21    10    11 ar  
    22    10    12 ar  
    23    11    21 ar  
    24    11    32 1   
    25    12    13 ar  
    26    12    33 1   
    27    13    14 ar  
    28    13    34 1   
    29    14    15 ar  
    30    14    21 ar  
    31    15    16 1   
    32    15    17 ar  
    33    16    35 1   
    34    16    36 1   
    35    16    37 1   
    36    17    18 ar  
    37    17    38 1   
    38    18    19 1   
    39    18    20 ar  
    40    19    39 1   
    41    19    40 1   
    42    20    21 ar  
@<TRIPOS>SUBSTRUCTURE
     1 M16         1 TEMP              0 ****  ****    0 ROOT
