@<TRIPOS>MOLECULE
M16
   40    42     1     0     0
SMALL
No Charge or Current Charge


@<TRIPOS>ATOM
      1 N29        123.3760   248.1180   353.2950 n8         1 M16      -0.990200
      2 C28        123.6630   249.3710   354.0240 c3         1 M16       0.152800
      3 C27        123.8670   249.1490   355.5420 c3         1 M16      -0.030100
      4 C24        122.6160   248.6620   356.2690 ca         1 M16      -0.058300
      5 C23        122.5580   247.3620   356.8060 ca         1 M16      -0.102000
      6 C22        121.4090   246.9220   357.4850 ca         1 M16      -0.097000
      7 C25        121.5100   249.5170   356.4280 ca         1 M16      -0.102000
      8 C26        120.3610   249.0780   357.1090 ca         1 M16      -0.097000
      9 C21        120.2850   247.7700   357.6510 cp         1 M16      -0.040000
     10 C08        119.0600   247.3020   358.3760 cp         1 M16      -0.009000
     11 C09        118.6230   245.9590   358.2860 ca         1 M16      -0.096000
     12 C07        118.3000   248.1870   359.1750 ca         1 M16      -0.122000
     13 C06        117.1530   247.7510   359.8550 ca         1 M16      -0.078000
     14 C05        116.7300   246.4070   359.7540 ca         1 M16      -0.124000
     15 C04        115.5760   245.9420   360.4320 ca         1 M16       0.007700
     16 C11        114.7130   246.8420   361.3110 c3         1 M16      -0.055800
     17 C03        115.2320   244.5910   360.2710 ca         1 M16      -0.215000
     18 C02        116.0340   243.7920   359.4610 ca         1 M16       0.619900
     19 N02        115.8110   242.4950   359.2420 nv         1 M16      -1.071900
     20 N01        117.1180   244.1970   358.8210 nb         1 M16      -0.761000
     21 C10        117.4760   245.4960   358.9560 ca         1 M16       0.325000
     22 H1         123.3340   248.3190   352.2880 hn         1 M16       0.391000
     23 H2         124.1810   247.4880   353.3830 hn         1 M16       0.391000
     24 H4         124.5750   249.8150   353.6010 h1         1 M16       0.028700
     25 H5         122.8350   250.0740   353.8610 h1         1 M16       0.028700
     26 H6         124.7000   248.4500   355.6920 hc         1 M16       0.044200
     27 H7         124.1930   250.0980   355.9850 hc         1 M16       0.044200
     28 H8         123.4060   246.6890   356.6980 ha         1 M16       0.109000
     29 H9         121.3980   245.9170   357.8990 ha         1 M16       0.113500
     30 H10        121.5390   250.5260   356.0230 ha         1 M16       0.109000
     31 H11        119.5170   249.7560   357.2040 ha         1 M16       0.113500
     32 H12        119.1760   245.2570   357.6700 ha         1 M16       0.131000
     33 H13        118.6090   249.2240   359.2820 ha         1 M16       0.114000
     34 H14        116.6060   248.4690   360.4590 ha         1 M16       0.109000
     35 H15        114.2990   247.6770   360.7340 hc         1 M16       0.048033
     36 H16        113.8680   246.2950   361.7450 hc         1 M16       0.048033
     37 H17        115.2950   247.2560   362.1420 hc         1 M16       0.048033
     38 H18        114.3590   244.1710   360.7620 ha         1 M16       0.117000
     39 H19        116.5980   242.0020   358.8400 hn         1 M16       0.478000
     40 H20        115.2690   241.9910   359.9350 hn         1 M16       0.478000
@<TRIPOS>BOND
     1     1     2 1   
     2     1    22 1   
     3     1    23 1   
     4     2     3 1   
     5     2    24 1   
     6     2    25 1   
     7     3     4 1   
     8     3    26 1   
     9     3    27 1   
    10     4     5 ar  
    11     4     7 ar  
    12     5     6 ar  
    13     5    28 1   
    14     6     9 ar  
    15     6    29 1   
    16     7     8 ar  
    17     7    30 1   
    18     8     9 ar  
    19     8    31 1   
    20     9    10 1   
    21    10    11 ar  
    22    10    12 ar  
    23    11    21 ar  
    24    11    32 1   
    25    12    13 ar  
    26    12    33 1   
    27    13    14 ar  
    28    13    34 1   
    29    14    15 ar  
    30    14    21 ar  
    31    15    16 1   
    32    15    17 ar  
    33    16    35 1   
    34    16    36 1   
    35    16    37 1   
    36    17    18 ar  
    37    17    38 1   
    38    18    19 1   
    39    18    20 ar  
    40    19    39 1   
    41    19    40 1   
    42    20    21 ar  
@<TRIPOS>SUBSTRUCTURE
     1 M16         1 TEMP              0 ****  ****    0 ROOT
