@<TRIPOS>MOLECULE
M17
  114   116     1     0     0
SMALL
abcg2


@<TRIPOS>ATOM
      1 CAB        -11.1960    -2.9560    -1.7090 c2         1 M17      -0.320000
      2 CAO        -10.0590    -3.6000    -1.9450 c2         1 M17      -0.211200
      3 CBD         -8.8670    -3.0030    -2.6320 c3         1 M17      -0.001900
      4 CBS         -7.6770    -2.9450    -1.7060 ca         1 M17      -0.070300
      5 CAT         -6.6530    -3.8840    -1.7810 ca         1 M17      -0.106000
      6 CAV         -5.5790    -3.8450    -0.9030 ca         1 M17      -0.092500
      7 CAU         -7.5980    -1.9690    -0.7170 ca         1 M17      -0.106000
      8 CAW         -6.5230    -1.9270     0.1570 ca         1 M17      -0.092500
      9 CBU         -5.4920    -2.8610     0.0790 ca         1 M17      -0.082300
     10 CBH         -4.3310    -2.8120     1.0300 c3         1 M17      -0.056100
     11 CCC         -3.0330    -2.2160     0.4380 c3         1 M17       0.112000
     12 CBR         -3.2480    -0.7880    -0.0980 c          1 M17       0.620100
     13 OAL         -2.9430    -0.4660    -1.2300 o          1 M17      -0.565100
     14 N           -3.7510     0.0740     0.8070 ns         1 M17      -0.510900
     15 CA          -3.8780     1.5000     0.6120 c3         1 M17       0.039700
     16 CB          -5.3360     1.9210     0.3270 c3         1 M17      -0.069700
     17 CG2         -5.5270     3.4350     0.3900 c3         1 M17      -0.092600
     18 CG1         -5.7890     1.3980    -1.0300 c3         1 M17      -0.092600
     19 C           -3.3620     2.1660     1.8860 c          1 M17       0.584100
     20 O           -3.6540     1.7200     2.9870 o          1 M17      -0.618100
     21 NBJ         -2.6000     3.2520     1.7110 ns         1 M17      -0.496900
     22 CBB         -2.1300     4.0740     2.8110 c3         1 M17       0.132200
     23 CAN         -0.9820     4.9250     2.3680 c2         1 M17      -0.254200
     24 CAA         -0.9870     6.2510     2.4080 c2         1 M17      -0.290000
     25 OAM         -2.6090    -2.9640    -0.6700 oh         1 M17      -0.615000
     26 CBF         -1.9500    -2.1870     1.5300 c3         1 M17      -0.110400
     27 CBC         -0.5870    -1.7210     1.0400 c3         1 M17      -0.076400
     28 CBE          0.3780    -1.5180     2.1970 c3         1 M17       0.161800
     29 NCA          1.7320    -1.2660     1.7310 n3         1 M17      -0.460600
     30 NBM          1.8280    -0.1110     0.9850 ns         1 M17      -0.388300
     31 CBQ          2.1740    -0.1460    -0.3170 c          1 M17       0.611100
     32 OAK          2.3050    -1.1720    -0.9570 o          1 M17      -0.569100
     33 CBZ          2.3900     1.2280    -0.9590 c3         1 M17       0.052700
     34 CCB          1.0750     1.8750    -1.4870 c3         1 M17      -0.051000
     35 CAH          0.1520     2.2190    -0.3170 c3         1 M17      -0.088100
     36 CAF          1.4350     3.1770    -2.2050 c3         1 M17      -0.088100
     37 CAG          0.3370     0.9450    -2.4500 c3         1 M17      -0.088100
     38 NBK          3.3740     1.0590    -1.9950 ns         1 M17      -0.486900
     39 CBO          4.5040     1.7850    -2.0750 c          1 M17       0.643100
     40 OAI          4.8120     2.7050    -1.3470 o          1 M17      -0.556000
     41 OBN          5.2560     1.3600    -3.0980 os         1 M17      -0.452100
     42 CAC          6.4480     2.0880    -3.3690 c3         1 M17       0.170900
     43 CBG          2.7350    -1.2710     2.7900 c3         1 M17       0.202100
     44 CBT          4.1040    -1.0890     2.2000 ca         1 M17      -0.094300
     45 CAX          4.8100     0.0930     2.3820 ca         1 M17      -0.090000
     46 CAZ          6.0370     0.2930     1.7680 ca         1 M17      -0.099000
     47 CAY          4.6590    -2.0750     1.3890 ca         1 M17      -0.090000
     48 CBA          5.8870    -1.8820     0.7790 ca         1 M17      -0.099000
     49 CBW          6.5940    -0.6890     0.9520 cp         1 M17      -0.028000
     50 CBV          7.8910    -0.4700     0.2820 cp         1 M17      -0.034000
     51 CAR          8.8080    -1.5120     0.1260 ca         1 M17      -0.100000
     52 CAP         10.0250    -1.2990    -0.5040 ca         1 M17      -0.114000
     53 CXX         10.3520    -0.0390    -0.9890 ca         1 M17      -0.108000
     54 CAQ          9.4480     1.0050    -0.8400 ca         1 M17      -0.114000
     55 CAS          8.2300     0.7910    -0.2120 ca         1 M17      -0.100000
     56 HAB1       -11.3420    -1.9280    -2.0200 ha         1 M17       0.161000
     57 HAB2       -12.0210    -3.4320    -1.1960 ha         1 M17       0.161000
     58 HAO1        -9.9490    -4.6290    -1.6140 ha         1 M17       0.170000
     59 HBD1        -8.6110    -3.6050    -3.5090 hc         1 M17       0.053200
     60 HBD2        -9.1140    -2.0020    -2.9940 hc         1 M17       0.053200
     61 HAT         -6.6930    -4.6610    -2.5360 ha         1 M17       0.112000
     62 HAU         -8.3840    -1.2280    -0.6280 ha         1 M17       0.112000
     63 HAV         -4.8100    -4.6030    -0.9790 ha         1 M17       0.110000
     64 HAW         -6.4900    -1.1540     0.9160 ha         1 M17       0.110000
     65 HBH1        -4.6160    -2.2700     1.9340 hc         1 M17       0.050700
     66 HBH2        -4.0880    -3.8240     1.3690 hc         1 M17       0.050700
     67 HAM         -2.3640    -3.8430    -0.3610 ho         1 M17       0.443000
     68 HBF1        -2.2850    -1.5580     2.3600 hc         1 M17       0.045700
     69 HBF2        -1.8620    -3.1950     1.9490 hc         1 M17       0.045700
     70 H           -3.9830    -0.2550     1.7310 hn         1 M17       0.328500
     71 HA          -3.2570     1.7840    -0.2420 h1         1 M17       0.083700
     72 HB          -5.9580     1.4650     1.1060 hc         1 M17       0.058700
     73 HG21        -4.8720     3.9470    -0.3180 hc         1 M17       0.040033
     74 HG22        -6.5530     3.6890     0.1240 hc         1 M17       0.040033
     75 HG23        -5.3400     3.8460     1.3820 hc         1 M17       0.040033
     76 HG11        -5.6640     0.3210    -1.1230 hc         1 M17       0.040033
     77 HG12        -6.8460     1.6160    -1.1850 hc         1 M17       0.040033
     78 HG13        -5.2280     1.8740    -1.8370 hc         1 M17       0.040033
     79 HBJ         -2.4710     3.6070     0.7770 hn         1 M17       0.319500
     80 HBB1        -2.9380     4.6980     3.2020 h1         1 M17       0.057700
     81 HBB2        -1.8100     3.4150     3.6190 h1         1 M17       0.057700
     82 HAN1        -0.1040     4.3990     2.0080 ha         1 M17       0.175000
     83 HAA1        -1.8470     6.8070     2.7610 ha         1 M17       0.168000
     84 HAA2        -0.1270     6.8280     2.0940 ha         1 M17       0.168000
     85 HBC1        -0.1590    -2.4490     0.3490 hc         1 M17       0.069200
     86 HBC2        -0.6820    -0.7860     0.4820 hc         1 M17       0.069200
     87 HBE1         0.0130    -0.7140     2.8560 h1         1 M17       0.034700
     88 HBE2         0.4180    -2.4260     2.8040 h1         1 M17       0.034700
     89 HBM          1.7610     0.7800     1.4640 hn         1 M17       0.302500
     90 HBG1         2.5450    -0.4890     3.5410 h1         1 M17       0.044200
     91 HBG2         2.6580    -2.2320     3.3050 h1         1 M17       0.044200
     92 HBZ          2.8140     1.9110    -0.2170 h1         1 M17       0.082700
     93 HBK          3.2710     0.2650    -2.6090 hn         1 M17       0.348500
     94 HAH1         0.6530     2.8450     0.4260 hc         1 M17       0.039700
     95 HAH2        -0.7090     2.7800    -0.6860 hc         1 M17       0.039700
     96 HAH3        -0.2370     1.3360     0.1900 hc         1 M17       0.039700
     97 HAF1         2.0490     3.0010    -3.0880 hc         1 M17       0.039700
     98 HAF2         0.5260     3.6820    -2.5360 hc         1 M17       0.039700
     99 HAF3         1.9760     3.8600    -1.5460 hc         1 M17       0.039700
    100 HAG1        -0.0130     0.0370    -1.9570 hc         1 M17       0.039700
    101 HAG2        -0.5430     1.4520    -2.8490 hc         1 M17       0.039700
    102 HAG3         0.9580     0.6560    -3.3000 hc         1 M17       0.039700
    103 HAC1         6.9000     1.6060    -4.2310 h1         1 M17       0.046367
    104 HAC2         6.2380     3.1300    -3.6110 h1         1 M17       0.046367
    105 HAC3         7.1460     2.0480    -2.5340 h1         1 M17       0.046367
    106 HAX          4.3950     0.8730     3.0090 ha         1 M17       0.115500
    107 HAY          4.1180    -2.9970     1.2180 ha         1 M17       0.115500
    108 HAZ          6.5670     1.2220     1.9380 ha         1 M17       0.118000
    109 HBA          6.2870    -2.6570     0.1380 ha         1 M17       0.118000
    110 HAR          8.5760    -2.4950     0.5150 ha         1 M17       0.118500
    111 HAS          7.5220     1.6070    -0.1280 ha         1 M17       0.118500
    112 HAP         10.7230    -2.1190    -0.6110 ha         1 M17       0.111500
    113 HXX         11.3010     0.1280    -1.4800 ha         1 M17       0.111000
    114 HAQ          9.6900     1.9900    -1.2200 ha         1 M17       0.111500
@<TRIPOS>BOND
     1     1     2 2   
     2     1    56 1   
     3     1    57 1   
     4     2     3 1   
     5     2    58 1   
     6     3     4 1   
     7     3    59 1   
     8     3    60 1   
     9     4     5 ar  
    10     4     7 ar  
    11     5     6 ar  
    12     5    61 1   
    13     6     9 ar  
    14     6    63 1   
    15     7     8 ar  
    16     7    62 1   
    17     8     9 ar  
    18     8    64 1   
    19     9    10 1   
    20    10    11 1   
    21    10    65 1   
    22    10    66 1   
    23    11    12 1   
    24    11    25 1   
    25    11    26 1   
    26    12    13 2   
    27    12    14 1   
    28    14    15 1   
    29    14    70 1   
    30    15    16 1   
    31    15    19 1   
    32    15    71 1   
    33    16    17 1   
    34    16    18 1   
    35    16    72 1   
    36    17    73 1   
    37    17    74 1   
    38    17    75 1   
    39    18    76 1   
    40    18    77 1   
    41    18    78 1   
    42    19    20 2   
    43    19    21 1   
    44    21    22 1   
    45    21    79 1   
    46    22    23 1   
    47    22    80 1   
    48    22    81 1   
    49    23    24 2   
    50    23    82 1   
    51    24    83 1   
    52    24    84 1   
    53    25    67 1   
    54    26    27 1   
    55    26    68 1   
    56    26    69 1   
    57    27    28 1   
    58    27    85 1   
    59    27    86 1   
    60    28    29 1   
    61    28    87 1   
    62    28    88 1   
    63    29    30 1   
    64    29    43 1   
    65    30    31 1   
    66    30    89 1   
    67    31    32 2   
    68    31    33 1   
    69    33    34 1   
    70    33    38 1   
    71    33    92 1   
    72    34    35 1   
    73    34    36 1   
    74    34    37 1   
    75    35    94 1   
    76    35    95 1   
    77    35    96 1   
    78    36    97 1   
    79    36    98 1   
    80    36    99 1   
    81    37   100 1   
    82    37   101 1   
    83    37   102 1   
    84    38    39 1   
    85    38    93 1   
    86    39    40 2   
    87    39    41 1   
    88    41    42 1   
    89    42   103 1   
    90    42   104 1   
    91    42   105 1   
    92    43    44 1   
    93    43    90 1   
    94    43    91 1   
    95    44    45 ar  
    96    44    47 ar  
    97    45    46 ar  
    98    45   106 1   
    99    46    49 ar  
   100    46   108 1   
   101    47    48 ar  
   102    47   107 1   
   103    48    49 ar  
   104    48   109 1   
   105    49    50 1   
   106    50    51 ar  
   107    50    55 ar  
   108    51    52 ar  
   109    51   110 1   
   110    52    53 ar  
   111    52   112 1   
   112    53    54 ar  
   113    53   113 1   
   114    54    55 ar  
   115    54   114 1   
   116    55   111 1   
@<TRIPOS>SUBSTRUCTURE
     1 M17         1 TEMP              0 ****  ****    0 ROOT
