@<TRIPOS>MOLECULE
M17
  114   116     1     0     0
SMALL
No Charge or Current Charge


@<TRIPOS>ATOM
      1 CAB        -11.5980    -1.6800    -0.7360 c2         1 M17      -0.320000
      2 CAO        -10.4880    -2.3660    -1.0530 c2         1 M17      -0.211200
      3 CBD         -9.2470    -1.7780    -1.6930 c3         1 M17      -0.001900
      4 CBS         -7.9930    -2.0640    -0.8790 ca         1 M17      -0.070300
      5 CAT         -7.1490    -3.1370    -1.2160 ca         1 M17      -0.106000
      6 CAV         -5.9870    -3.3910    -0.4670 ca         1 M17      -0.092500
      7 CAU         -7.6710    -1.2590     0.2280 ca         1 M17      -0.106000
      8 CAW         -6.5100    -1.5120     0.9780 ca         1 M17      -0.092500
      9 CBU         -5.6460    -2.5700     0.6270 ca         1 M17      -0.082300
     10 CBH         -4.3730    -2.8190     1.4450 c3         1 M17      -0.056100
     11 CCC         -3.0200    -2.6580     0.6670 c3         1 M17       0.112000
     12 CBR         -2.9610    -1.3110    -0.1700 c          1 M17       0.620100
     13 OAL         -2.3950    -1.2230    -1.2550 o          1 M17      -0.565100
     14 N           -3.6230    -0.2220     0.3690 ns         1 M17      -0.510900
     15 CA          -3.7290     1.1190    -0.2550 c3         1 M17       0.039700
     16 CB          -5.0760     1.2660    -1.0410 c3         1 M17      -0.069700
     17 CG2         -5.2850     2.6830    -1.6330 c3         1 M17      -0.092600
     18 CG1         -5.2410     0.2040    -2.1580 c3         1 M17      -0.092600
     19 C           -3.5670     2.1960     0.8610 c          1 M17       0.584100
     20 O           -3.9010     2.0060     2.0250 o          1 M17      -0.618100
     21 NBJ         -2.9920     3.3820     0.4600 ns         1 M17      -0.496900
     22 CBB         -2.7560     4.5210     1.3350 c3         1 M17       0.132200
     23 CAN         -1.9840     5.5750     0.5770 c2         1 M17      -0.254200
     24 CAA         -2.4100     6.2110    -0.5270 c2         1 M17      -0.290000
     25 OAM         -2.8630    -3.8160    -0.1880 oh         1 M17      -0.615000
     26 CBF         -1.8370    -2.6950     1.6850 c3         1 M17      -0.110400
     27 CBC         -0.4290    -2.4630     1.0760 c3         1 M17      -0.076400
     28 CBE          0.7160    -2.6060     2.1060 c3         1 M17       0.161800
     29 NCA          2.0330    -2.1870     1.5760 n3         1 M17      -0.460600
     30 NBM          2.0690    -0.7880     1.2690 ns         1 M17      -0.388300
     31 CBQ          2.2980    -0.2970    -0.0150 c          1 M17       0.611100
     32 OAK          2.3490    -1.0300    -1.0000 o          1 M17      -0.569100
     33 CBZ          2.5370     1.2420    -0.0950 c3         1 M17       0.052700
     34 CCB          1.2140     2.1010    -0.1140 c3         1 M17      -0.051000
     35 CAH          0.4230     1.9150     1.2100 c3         1 M17      -0.088100
     36 CAF          1.5590     3.6120    -0.2480 c3         1 M17      -0.088100
     37 CAG          0.2980     1.6950    -1.3020 c3         1 M17      -0.088100
     38 NBK          3.4030     1.5240    -1.2650 ns         1 M17      -0.486900
     39 CBO          4.5350     2.2870    -1.2420 c          1 M17       0.643100
     40 OAI          4.9750     2.8680    -0.2630 o          1 M17      -0.556000
     41 OBN          5.0980     2.2710    -2.4810 os         1 M17      -0.452100
     42 CAC          6.3250     2.9970    -2.6670 c3         1 M17       0.170900
     43 CBG          3.1980    -2.5840     2.4060 c3         1 M17       0.202100
     44 CBT          4.5180    -2.0740     1.8280 ca         1 M17      -0.094300
     45 CAX          5.1790    -0.9820     2.4220 ca         1 M17      -0.090000
     46 CAZ          6.3400    -0.4510     1.8360 ca         1 M17      -0.099000
     47 CAY          5.0430    -2.6360     0.6500 ca         1 M17      -0.090000
     48 CBA          6.2060    -2.1040     0.0660 ca         1 M17      -0.099000
     49 CBW          6.8740    -0.9950     0.6410 cp         1 M17      -0.028000
     50 CBV          8.0930    -0.4050    -0.0010 cp         1 M17      -0.034000
     51 CAR          9.0350    -1.2210    -0.6780 ca         1 M17      -0.100000
     52 CAP         10.1750    -0.6650    -1.2850 ca         1 M17      -0.114000
     53 CXX         10.3960     0.7200    -1.2280 ca         1 M17      -0.108000
     54 CAQ          9.4780     1.5480    -0.5640 ca         1 M17      -0.114000
     55 CAS          8.3390     0.9910     0.0430 ca         1 M17      -0.100000
     56 HAB1       -11.6870    -0.6090    -0.9240 ha         1 M17       0.161000
     57 HAB2       -12.4570    -2.1690    -0.2740 ha         1 M17       0.161000
     58 HAO1       -10.4230    -3.4380    -0.8520 ha         1 M17       0.170000
     59 HBD1        -9.1340    -2.1840    -2.7060 hc         1 M17       0.053200
     60 HBD2        -9.3620    -0.6950    -1.8240 hc         1 M17       0.053200
     61 HAT         -7.3910    -3.7780    -2.0610 ha         1 M17       0.112000
     62 HAU         -8.3210    -0.4330     0.5080 ha         1 M17       0.112000
     63 HAV         -5.3540    -4.2300    -0.7450 ha         1 M17       0.110000
     64 HAW         -6.2820    -0.8750     1.8290 ha         1 M17       0.110000
     65 HBH1        -4.3630    -2.1460     2.3120 hc         1 M17       0.050700
     66 HBH2        -4.4190    -3.8270     1.8770 hc         1 M17       0.050700
     67 HAM         -2.8130    -4.6050     0.3920 ho         1 M17       0.443000
     68 HBF1        -2.0020    -1.9240     2.4480 hc         1 M17       0.045700
     69 HBF2        -1.8420    -3.6550     2.2150 hc         1 M17       0.045700
     70 H           -4.0620    -0.3580     1.2710 hn         1 M17       0.328500
     71 HA          -2.8930     1.2540    -0.9530 h1         1 M17       0.083700
     72 HB          -5.8900     1.1030    -0.3240 hc         1 M17       0.058700
     73 HG21        -4.4520     2.9600    -2.2910 hc         1 M17       0.040033
     74 HG22        -6.2100     2.7240    -2.2210 hc         1 M17       0.040033
     75 HG23        -5.3740     3.4370    -0.8430 hc         1 M17       0.040033
     76 HG11        -5.2310    -0.8120    -1.7500 hc         1 M17       0.040033
     77 HG12        -6.1980     0.3340    -2.6780 hc         1 M17       0.040033
     78 HG13        -4.4350     0.2860    -2.8970 hc         1 M17       0.040033
     79 HBJ         -2.7350     3.4710    -0.5150 hn         1 M17       0.319500
     80 HBB1        -3.7210     4.9230     1.6720 h1         1 M17       0.057700
     81 HBB2        -2.1890     4.1910     2.2160 h1         1 M17       0.057700
     82 HAN1        -1.0050     5.8040     1.0060 ha         1 M17       0.175000
     83 HAA1        -3.3860     6.0040    -0.9710 ha         1 M17       0.168000
     84 HAA2        -1.7980     6.9660    -1.0240 ha         1 M17       0.168000
     85 HBC1        -0.2510    -3.1700     0.2570 hc         1 M17       0.069200
     86 HBC2        -0.3940    -1.4600     0.6390 hc         1 M17       0.069200
     87 HBE1         0.4730    -2.0110     2.9970 h1         1 M17       0.034700
     88 HBE2         0.7600    -3.6570     2.4200 h1         1 M17       0.034700
     89 HBM          2.0410    -0.1110     2.0250 hn         1 M17       0.302500
     90 HBG1         3.0790    -2.1930     3.4250 h1         1 M17       0.044200
     91 HBG2         3.2430    -3.6790     2.4840 h1         1 M17       0.044200
     92 HBZ          3.1000     1.5070     0.8100 h1         1 M17       0.082700
     93 HBK          3.1980     1.0700    -2.1450 hn         1 M17       0.348500
     94 HAH1         1.0640     2.0950     2.0820 hc         1 M17       0.039700
     95 HAH2        -0.4150     2.6180     1.2660 hc         1 M17       0.039700
     96 HAH3        -0.0000     0.9070     1.2930 hc         1 M17       0.039700
     97 HAF1         2.0430     3.8330    -1.2060 hc         1 M17       0.039700
     98 HAF2         0.6530     4.2280    -0.1940 hc         1 M17       0.039700
     99 HAF3         2.2320     3.9330     0.5570 hc         1 M17       0.039700
    100 HAG1        -0.0240     0.6500    -1.2200 hc         1 M17       0.039700
    101 HAG2        -0.6030     2.3180    -1.3290 hc         1 M17       0.039700
    102 HAG3         0.8150     1.8160    -2.2620 hc         1 M17       0.039700
    103 HAC1         6.6690     2.9060    -3.7050 h1         1 M17       0.046367
    104 HAC2         6.1870     4.0630    -2.4470 h1         1 M17       0.046367
    105 HAC3         7.1140     2.6060    -2.0120 h1         1 M17       0.046367
    106 HAX          4.7820    -0.5300     3.3280 ha         1 M17       0.115500
    107 HAY          4.5300    -3.4660     0.1700 ha         1 M17       0.115500
    108 HAZ          6.8300     0.3930     2.3150 ha         1 M17       0.118000
    109 HBA          6.5730    -2.5400    -0.8600 ha         1 M17       0.118000
    110 HAR          8.8890    -2.2970    -0.7230 ha         1 M17       0.118500
    111 HAS          7.6320     1.6530     0.5370 ha         1 M17       0.118500
    112 HAP         10.8870    -1.3090    -1.7960 ha         1 M17       0.111500
    113 HXX         11.2780     1.1510    -1.6980 ha         1 M17       0.111000
    114 HAQ          9.6460     2.6220    -0.5220 ha         1 M17       0.111500
@<TRIPOS>BOND
     1     1     2 2   
     2     1    56 1   
     3     1    57 1   
     4     2     3 1   
     5     2    58 1   
     6     3     4 1   
     7     3    59 1   
     8     3    60 1   
     9     4     5 ar  
    10     4     7 ar  
    11     5     6 ar  
    12     5    61 1   
    13     6     9 ar  
    14     6    63 1   
    15     7     8 ar  
    16     7    62 1   
    17     8     9 ar  
    18     8    64 1   
    19     9    10 1   
    20    10    11 1   
    21    10    65 1   
    22    10    66 1   
    23    11    12 1   
    24    11    25 1   
    25    11    26 1   
    26    12    13 2   
    27    12    14 1   
    28    14    15 1   
    29    14    70 1   
    30    15    16 1   
    31    15    19 1   
    32    15    71 1   
    33    16    17 1   
    34    16    18 1   
    35    16    72 1   
    36    17    73 1   
    37    17    74 1   
    38    17    75 1   
    39    18    76 1   
    40    18    77 1   
    41    18    78 1   
    42    19    20 2   
    43    19    21 1   
    44    21    22 1   
    45    21    79 1   
    46    22    23 1   
    47    22    80 1   
    48    22    81 1   
    49    23    24 2   
    50    23    82 1   
    51    24    83 1   
    52    24    84 1   
    53    25    67 1   
    54    26    27 1   
    55    26    68 1   
    56    26    69 1   
    57    27    28 1   
    58    27    85 1   
    59    27    86 1   
    60    28    29 1   
    61    28    87 1   
    62    28    88 1   
    63    29    30 1   
    64    29    43 1   
    65    30    31 1   
    66    30    89 1   
    67    31    32 2   
    68    31    33 1   
    69    33    34 1   
    70    33    38 1   
    71    33    92 1   
    72    34    35 1   
    73    34    36 1   
    74    34    37 1   
    75    35    94 1   
    76    35    95 1   
    77    35    96 1   
    78    36    97 1   
    79    36    98 1   
    80    36    99 1   
    81    37   100 1   
    82    37   101 1   
    83    37   102 1   
    84    38    39 1   
    85    38    93 1   
    86    39    40 2   
    87    39    41 1   
    88    41    42 1   
    89    42   103 1   
    90    42   104 1   
    91    42   105 1   
    92    43    44 1   
    93    43    90 1   
    94    43    91 1   
    95    44    45 ar  
    96    44    47 ar  
    97    45    46 ar  
    98    45   106 1   
    99    46    49 ar  
   100    46   108 1   
   101    47    48 ar  
   102    47   107 1   
   103    48    49 ar  
   104    48   109 1   
   105    49    50 1   
   106    50    51 ar  
   107    50    55 ar  
   108    51    52 ar  
   109    51   110 1   
   110    52    53 ar  
   111    52   112 1   
   112    53    54 ar  
   113    53   113 1   
   114    54    55 ar  
   115    54   114 1   
   116    55   111 1   
@<TRIPOS>SUBSTRUCTURE
     1 M17         1 TEMP              0 ****  ****    0 ROOT
