@<TRIPOS>MOLECULE
M18
   55    56     1     0     0
SMALL
abcg2


@<TRIPOS>ATOM
      1 C1          -2.7790    -0.0720     0.8150 c3         1 M18      -0.092100
      2 C2          -2.3440    -0.7090    -0.4840 c          1 M18       0.590100
      3 O1          -2.7640    -0.4160    -1.5740 o          1 M18      -0.470000
      4 O2          -1.4320    -1.6430    -0.2690 os         1 M18      -0.453100
      5 C3          -0.8960    -2.3400    -1.3950 c3         1 M18       0.151600
      6 C4           0.1560    -3.3040    -0.8760 c5         1 M18       0.111700
      7 C5          -0.4210    -4.4090     0.0210 c5         1 M18      -0.090400
      8 C6           0.6150    -4.5980     1.1230 c5         1 M18      -0.092400
      9 C7           1.1550    -3.1900     1.3270 c5         1 M18       0.102000
     10 N1           1.1580    -2.6540    -0.0280 n          1 M18      -0.403800
     11 C8           1.9940    -1.7250    -0.5030 c          1 M18       0.595100
     12 C9           2.9710    -1.1290     0.4990 c3         1 M18       0.045000
     13 N2           3.6980    -0.0670    -0.1320 ns         1 M18      -0.503900
     14 C10          4.7100     0.5660     0.4900 c          1 M18       0.654100
     15 O3           5.2260     1.5020    -0.3060 os         1 M18      -0.473100
     16 C11          6.3570     2.3260     0.0760 c3         1 M18       0.225000
     17 C12          7.6020     1.4740     0.2950 c3         1 M18      -0.108767
     18 C13          6.5510     3.2240    -1.1400 c3         1 M18      -0.108767
     19 C14          6.0360     3.1780     1.2980 c3         1 M18      -0.108767
     20 O4           5.0760     0.3050     1.6190 o          1 M18      -0.560000
     21 O5           1.9910    -1.3630    -1.6740 o          1 M18      -0.616100
     22 C15         -3.7460     1.0530     0.6000 ca         1 M18      -0.068300
     23 C16         -5.1150     0.8090     0.6090 ca         1 M18      -0.087000
     24 C17         -5.9980     1.8550     0.3930 ca         1 M18       0.121000
     25 CL1         -7.7040     1.5380     0.4120 cl         1 M18      -0.205000
     26 C18         -5.5510     3.1470     0.1660 ca         1 M18      -0.096000
     27 C19         -4.1840     3.3830     0.1590 ca         1 M18      -0.100000
     28 C20         -3.2880     2.3470     0.3740 ca         1 M18      -0.091000
     29 H1          -3.2200    -0.8510     1.4430 hc         1 M18       0.078200
     30 H1A         -1.8900     0.2750     1.3480 hc         1 M18       0.078200
     31 H3          -1.6800    -2.9070    -1.9040 h1         1 M18       0.068700
     32 H3A         -0.4670    -1.6340    -2.1040 h1         1 M18       0.068700
     33 H4           0.6460    -3.7390    -1.7520 h1         1 M18       0.075700
     34 H5          -1.3710    -4.0930     0.4560 hc         1 M18       0.059200
     35 H5A         -0.6100    -5.3190    -0.5470 hc         1 M18       0.059200
     36 H6           0.1950    -5.0160     2.0360 hc         1 M18       0.057700
     37 H6A          1.4210    -5.2540     0.7890 hc         1 M18       0.057700
     38 H7           0.4980    -2.6030     1.9750 h1         1 M18       0.054200
     39 H7A          2.1520    -3.1910     1.7640 h1         1 M18       0.054200
     40 H9           2.4220    -0.7740     1.3770 h1         1 M18       0.064700
     41 H9A          3.6460    -1.9160     0.8500 h1         1 M18       0.064700
     42 HN2          3.4640     0.1550    -1.0880 hn         1 M18       0.354500
     43 H12          7.7810     0.8170    -0.5580 hc         1 M18       0.049256
     44 H12A         8.4700     2.1260     0.3960 hc         1 M18       0.049256
     45 H12B         7.5370     0.8670     1.1950 hc         1 M18       0.049256
     46 H13          5.6680     3.8390    -1.3230 hc         1 M18       0.049256
     47 H13A         7.3950     3.8930    -0.9740 hc         1 M18       0.049256
     48 H13B         6.7570     2.6410    -2.0380 hc         1 M18       0.049256
     49 H14          5.9610     2.5890     2.2090 hc         1 M18       0.049256
     50 H14A         6.8320     3.9110     1.4390 hc         1 M18       0.049256
     51 H14B         5.1040     3.7290     1.1590 hc         1 M18       0.049256
     52 H16         -5.4890    -0.1910     0.7880 ha         1 M18       0.127000
     53 H18         -6.2530     3.9530     0.0010 ha         1 M18       0.130000
     54 H19         -3.8200     4.3870    -0.0160 ha         1 M18       0.120000
     55 H20         -2.2230     2.5450     0.3690 ha         1 M18       0.118000
@<TRIPOS>BOND
     1     1     2 1   
     2     1    22 1   
     3     1    29 1   
     4     1    30 1   
     5     2     3 2   
     6     2     4 1   
     7     4     5 1   
     8     5     6 1   
     9     5    31 1   
    10     5    32 1   
    11     6     7 1   
    12     6    10 1   
    13     6    33 1   
    14     7     8 1   
    15     7    34 1   
    16     7    35 1   
    17     8     9 1   
    18     8    36 1   
    19     8    37 1   
    20     9    10 1   
    21     9    38 1   
    22     9    39 1   
    23    10    11 1   
    24    11    12 1   
    25    11    21 2   
    26    12    13 1   
    27    12    40 1   
    28    12    41 1   
    29    13    14 1   
    30    13    42 1   
    31    14    15 1   
    32    14    20 2   
    33    15    16 1   
    34    16    17 1   
    35    16    18 1   
    36    16    19 1   
    37    17    43 1   
    38    17    44 1   
    39    17    45 1   
    40    18    46 1   
    41    18    47 1   
    42    18    48 1   
    43    19    49 1   
    44    19    50 1   
    45    19    51 1   
    46    22    23 ar  
    47    22    28 ar  
    48    23    24 ar  
    49    23    52 1   
    50    24    25 1   
    51    24    26 ar  
    52    26    27 ar  
    53    26    53 1   
    54    27    28 ar  
    55    27    54 1   
    56    28    55 1   
@<TRIPOS>SUBSTRUCTURE
     1 M18         1 TEMP              0 ****  ****    0 ROOT
