@<TRIPOS>MOLECULE
M18
   55    56     1     0     0
SMALL
No Charge or Current Charge


@<TRIPOS>ATOM
      1 C1          -3.2120    -0.3580     0.2250 c3         1 M18      -0.092100
      2 C2          -2.8250    -1.2970    -0.9180 c          1 M18       0.590100
      3 O1          -2.9470    -1.0050    -2.1010 o          1 M18      -0.470000
      4 O2          -2.0330    -2.3130    -0.4560 os         1 M18      -0.453100
      5 C3          -1.3950    -3.1860    -1.4130 c3         1 M18       0.151600
      6 C4          -0.2070    -3.8990    -0.7060 c5         1 M18       0.111700
      7 C5          -0.6820    -4.8980     0.3930 c5         1 M18      -0.090400
      8 C6           0.5590    -4.9870     1.3100 c5         1 M18      -0.092400
      9 C7           0.9400    -3.4930     1.4520 c5         1 M18       0.102000
     10 N1           0.6670    -2.9900     0.0870 n          1 M18      -0.403800
     11 C8           1.3580    -1.8980    -0.4810 c          1 M18       0.595100
     12 C9           2.1300    -0.9530     0.4770 c3         1 M18       0.045000
     13 N2           2.6480     0.2420    -0.2190 ns         1 M18      -0.503900
     14 C10          3.3560     1.2420     0.3750 c          1 M18       0.654100
     15 O3           3.6520     2.1750    -0.5780 os         1 M18      -0.473100
     16 C11          4.4220     3.3670    -0.2920 c3         1 M18       0.225000
     17 C12          5.8430     2.9650     0.1790 c3         1 M18      -0.108767
     18 C13          4.5020     4.1030    -1.6470 c3         1 M18      -0.108767
     19 C14          3.6690     4.2460     0.7410 c3         1 M18      -0.108767
     20 O4           3.6560     1.2650     1.5570 o          1 M18      -0.560000
     21 O5           1.3200    -1.6900    -1.6900 o          1 M18      -0.616100
     22 C15         -2.0380     0.5470     0.6000 ca         1 M18      -0.068300
     23 C16         -1.5340     1.4830    -0.3260 ca         1 M18      -0.087000
     24 C17         -0.4450     2.3010     0.0160 ca         1 M18       0.121000
     25 Cl1          0.1840     3.4550    -1.1530 cl         1 M18      -0.205000
     26 C18          0.1430     2.2000     1.2870 ca         1 M18      -0.096000
     27 C19         -0.3530     1.2700     2.2150 ca         1 M18      -0.100000
     28 C20         -1.4370     0.4430     1.8710 ca         1 M18      -0.091000
     29 H1          -4.0680     0.2520    -0.0830 hc         1 M18       0.078200
     30 H1A         -3.4770    -0.9700     1.0950 hc         1 M18       0.078200
     31 H3          -2.1010    -3.9280    -1.8080 h1         1 M18       0.068700
     32 H3A         -0.9940    -2.6160    -2.2610 h1         1 M18       0.068700
     33 H4           0.3880    -4.4220    -1.4670 h1         1 M18       0.075700
     34 H5          -1.5470    -4.5160     0.9480 hc         1 M18       0.059200
     35 H5A         -0.9700    -5.8700    -0.0250 hc         1 M18       0.059200
     36 H6           0.3440    -5.4580     2.2750 hc         1 M18       0.057700
     37 H6A          1.3650    -5.5590     0.8350 hc         1 M18       0.057700
     38 H7           0.3040    -2.9800     2.1860 h1         1 M18       0.054200
     39 H7A          1.9890    -3.3760     1.7530 h1         1 M18       0.054200
     40 H9           1.4510    -0.6450     1.2810 h1         1 M18       0.064700
     41 H9A          2.9680    -1.5090     0.9150 h1         1 M18       0.064700
     42 HN2          2.4700     0.3490    -1.2100 hn         1 M18       0.354500
     43 H12          6.2790     2.2170    -0.4940 hc         1 M18       0.049256
     44 H12A         6.5040     3.8400     0.1850 hc         1 M18       0.049256
     45 H12B         5.8380     2.5570     1.1950 hc         1 M18       0.049256
     46 H13          3.4990     4.3530    -2.0150 hc         1 M18       0.049256
     47 H13A         5.0710     5.0360    -1.5520 hc         1 M18       0.049256
     48 H13B         4.9970     3.4790    -2.4010 hc         1 M18       0.049256
     49 H14          3.6750     3.8030     1.7420 hc         1 M18       0.049256
     50 H14A         4.1460     5.2300     0.8200 hc         1 M18       0.049256
     51 H14B         2.6290     4.4020     0.4350 hc         1 M18       0.049256
     52 H16         -1.9820     1.5750    -1.3120 ha         1 M18       0.127000
     53 H18          0.9830     2.8380     1.5500 ha         1 M18       0.130000
     54 H19          0.1050     1.1870     3.1980 ha         1 M18       0.120000
     55 H20         -1.8070    -0.2770     2.5970 ha         1 M18       0.118000
@<TRIPOS>BOND
     1     1     2 1   
     2     1    22 1   
     3     1    29 1   
     4     1    30 1   
     5     2     3 2   
     6     2     4 1   
     7     4     5 1   
     8     5     6 1   
     9     5    31 1   
    10     5    32 1   
    11     6     7 1   
    12     6    10 1   
    13     6    33 1   
    14     7     8 1   
    15     7    34 1   
    16     7    35 1   
    17     8     9 1   
    18     8    36 1   
    19     8    37 1   
    20     9    10 1   
    21     9    38 1   
    22     9    39 1   
    23    10    11 1   
    24    11    12 1   
    25    11    21 2   
    26    12    13 1   
    27    12    40 1   
    28    12    41 1   
    29    13    14 1   
    30    13    42 1   
    31    14    15 1   
    32    14    20 2   
    33    15    16 1   
    34    16    17 1   
    35    16    18 1   
    36    16    19 1   
    37    17    43 1   
    38    17    44 1   
    39    17    45 1   
    40    18    46 1   
    41    18    47 1   
    42    18    48 1   
    43    19    49 1   
    44    19    50 1   
    45    19    51 1   
    46    22    23 ar  
    47    22    28 ar  
    48    23    24 ar  
    49    23    52 1   
    50    24    25 1   
    51    24    26 ar  
    52    26    27 ar  
    53    26    53 1   
    54    27    28 ar  
    55    27    54 1   
    56    28    55 1   
@<TRIPOS>SUBSTRUCTURE
     1 M18         1 TEMP              0 ****  ****    0 ROOT
