@<TRIPOS>MOLECULE
M19
   34    36     1     0     0
SMALL
abcg2


@<TRIPOS>ATOM
      1 C11         52.7820     0.7860    23.2000 ca         1 M19       0.403900
      2 C13         52.2830     0.0950    25.5010 ca         1 M19       0.253000
      3 C14         52.4290     1.2660    26.2310 ca         1 M19      -0.033000
      4 C15         52.6470     1.2240    27.5980 ca         1 M19       0.045000
      5 C17         52.6900    -0.0010    28.2370 ca         1 M19       0.212000
      6 C02         51.1170    -0.0370    19.9330 ca         1 M19       0.113100
      7 C03         51.9750     0.6830    19.0470 ca         1 M19       0.157100
      8 C05         52.4470     1.2850    16.8140 c3         1 M19       0.141900
      9 C06         53.0290     1.3990    19.5540 ca         1 M19      -0.185000
     10 C07         53.2820     1.4300    20.9420 ca         1 M19       0.065000
     11 C09         54.5150     2.1610    22.6830 ca         1 M19       0.164900
     12 C19         52.5210    -1.1790    27.5410 ca         1 M19      -0.235000
     13 C20         52.3280    -1.1390    26.1650 ca         1 M19       0.139100
     14 C22         52.4440     0.7100    21.8110 ca         1 M19      -0.165000
     15 C23         51.3540    -0.0130    21.2800 ca         1 M19      -0.161000
     16 F18         52.8950    -0.0460    29.5540 f          1 M19      -0.157000
     17 N08         54.3320     2.1640    21.3940 nb         1 M19      -0.205000
     18 N10         53.8020     1.5120    23.6100 nb         1 M19      -0.274000
     19 N12         52.0520     0.1060    24.1180 nu         1 M19      -0.934900
     20 O01         50.1040    -0.7000    19.3520 oh         1 M19      -0.510100
     21 O04         51.6510     0.5900    17.7550 os         1 M19      -0.315100
     22 O21         52.1690    -2.2420    25.4190 oh         1 M19      -0.536100
     23 CL16        52.8520     2.6750    28.5060 cl         1 M19      -0.163000
     24 H1          52.3720     2.2200    25.7290 ha         1 M19       0.153000
     25 H2          52.0160     1.0820    15.8370 h1         1 M19       0.046367
     26 H3          52.4330     2.3640    16.9910 h1         1 M19       0.046367
     27 H4          53.4830     0.9370    16.8250 h1         1 M19       0.046367
     28 H5          53.6960     1.9600    18.9130 ha         1 M19       0.143000
     29 H6          55.3460     2.7480    23.0640 h5         1 M19       0.047100
     30 H7          52.5600    -2.1240    28.0700 ha         1 M19       0.137000
     31 H8          50.6740    -0.5580    21.9240 ha         1 M19       0.110000
     32 H9          51.3920    -0.5750    23.7780 hn         1 M19       0.510000
     33 H10         49.5800    -1.1650    20.0160 ho         1 M19       0.462000
     34 H11         52.1690    -3.0360    25.9670 ho         1 M19       0.477000
@<TRIPOS>BOND
     1     1    14 ar  
     2     1    18 ar  
     3     1    19 1   
     4     2     3 ar  
     5     2    13 ar  
     6     2    19 1   
     7     3     4 ar  
     8     3    24 1   
     9     4     5 ar  
    10     4    23 1   
    11     5    12 ar  
    12     5    16 1   
    13     6     7 ar  
    14     6    15 ar  
    15     6    20 1   
    16     7     9 ar  
    17     7    21 1   
    18     8    21 1   
    19     8    25 1   
    20     8    26 1   
    21     8    27 1   
    22     9    10 ar  
    23     9    28 1   
    24    10    14 ar  
    25    10    17 ar  
    26    11    17 ar  
    27    11    18 ar  
    28    11    29 1   
    29    12    13 ar  
    30    12    30 1   
    31    13    22 1   
    32    14    15 ar  
    33    15    31 1   
    34    19    32 1   
    35    20    33 1   
    36    22    34 1   
@<TRIPOS>SUBSTRUCTURE
     1 M19         1 TEMP              0 ****  ****    0 ROOT
