@<TRIPOS>MOLECULE
M19
   34    36     1     0     0
SMALL
No Charge or Current Charge


@<TRIPOS>ATOM
      1 C11         52.9990     0.8920    23.1320 ca         1 M19       0.403900
      2 C13         52.4460     0.0650    25.5330 ca         1 M19       0.253000
      3 C14         52.7690     1.1970    26.3120 ca         1 M19      -0.033000
      4 C15         52.7690     1.1210    27.7160 ca         1 M19       0.045000
      5 C17         52.4340    -0.0870    28.3550 ca         1 M19       0.212000
      6 C02         51.2810    -0.1910    19.9630 ca         1 M19       0.113100
      7 C03         51.9560     0.6240    19.0230 ca         1 M19       0.157100
      8 C05         52.2390     1.3170    16.6620 c3         1 M19       0.141900
      9 C06         52.9610     1.5100    19.4700 ca         1 M19      -0.185000
     10 C07         53.2980     1.5910    20.8320 ca         1 M19       0.065000
     11 C09         54.5460     2.4770    22.5530 ca         1 M19       0.164900
     12 C19         52.0900    -1.2170    27.5980 ca         1 M19      -0.235000
     13 C20         52.0890    -1.1440    26.1950 ca         1 M19       0.139100
     14 C22         52.6230     0.7710    21.7690 ca         1 M19      -0.165000
     15 C23         51.6120    -0.1170    21.3270 ca         1 M19      -0.161000
     16 F18         52.4300    -0.1690    29.7050 f          1 M19      -0.157000
     17 N08         54.2610     2.4450    21.2380 nb         1 M19      -0.205000
     18 N10         53.9670     1.7400    23.5180 nb         1 M19      -0.274000
     19 N12         52.4220     0.0950    24.1230 nu         1 M19      -0.934900
     20 O01         50.2980    -1.0590    19.5620 oh         1 M19      -0.510100
     21 O04         51.6070     0.5280    17.6850 os         1 M19      -0.315100
     22 O21         51.7360    -2.2580    25.4720 oh         1 M19      -0.536100
     23 Cl16        53.1820     2.5530    28.6590 cl         1 M19      -0.163000
     24 H1          53.0040     2.1440    25.8420 ha         1 M19       0.153000
     25 H2          51.8100     1.0800    15.6800 h1         1 M19       0.046367
     26 H3          52.0910     2.3880    16.8470 h1         1 M19       0.046367
     27 H4          53.3170     1.1110    16.6190 h1         1 M19       0.046367
     28 H5          53.4930     2.1480    18.7700 ha         1 M19       0.143000
     29 H6          55.3270     3.1670    22.8680 h5         1 M19       0.047100
     30 H7          51.8240    -2.1390    28.1100 ha         1 M19       0.137000
     31 H8          51.0760    -0.7450    22.0340 ha         1 M19       0.110000
     32 H9          51.9750    -0.7380    23.7410 hn         1 M19       0.510000
     33 H10         49.9500    -1.5270    20.3500 ho         1 M19       0.462000
     34 H11         51.5370    -2.9880    26.0970 ho         1 M19       0.477000
@<TRIPOS>BOND
     1     1    14 ar  
     2     1    18 ar  
     3     1    19 1   
     4     2     3 ar  
     5     2    13 ar  
     6     2    19 1   
     7     3     4 ar  
     8     3    24 1   
     9     4     5 ar  
    10     4    23 1   
    11     5    12 ar  
    12     5    16 1   
    13     6     7 ar  
    14     6    15 ar  
    15     6    20 1   
    16     7     9 ar  
    17     7    21 1   
    18     8    21 1   
    19     8    25 1   
    20     8    26 1   
    21     8    27 1   
    22     9    10 ar  
    23     9    28 1   
    24    10    14 ar  
    25    10    17 ar  
    26    11    17 ar  
    27    11    18 ar  
    28    11    29 1   
    29    12    13 ar  
    30    12    30 1   
    31    13    22 1   
    32    14    15 ar  
    33    15    31 1   
    34    19    32 1   
    35    20    33 1   
    36    22    34 1   
@<TRIPOS>SUBSTRUCTURE
     1 M19         1 TEMP              0 ****  ****    0 ROOT
