@<TRIPOS>MOLECULE
M1A
   19    20     1     0     0
SMALL
bcc


@<TRIPOS>ATOM
      1 N9          -2.3000     0.7420     0.0080 na         1 M1A      -0.244500
      2 C8          -2.6460    -0.5740     0.0560 cc         1 M1A       0.450700
      3 N7          -1.6150    -1.3720     0.0770 nd         1 M1A      -0.523100
      4 C5          -0.5450    -0.5280     0.0400 cd         1 M1A      -0.142900
      5 C6           0.8320    -0.7960     0.0400 cc         1 M1A       0.390300
      6 N6           1.3370    -2.0090     0.0750 nv         1 M1A      -0.792200
      7 N1           1.6280     0.3070    -0.0020 na         1 M1A      -0.249900
      8 C2           1.1060     1.5700    -0.0440 cc         1 M1A       0.577400
      9 N3          -0.1490     1.8670    -0.0470 nd         1 M1A      -0.629000
     10 C4          -0.9520     0.7930    -0.0030 cd         1 M1A       0.389300
     11 CN1          3.0810     0.1420    -0.0000 c3         1 M1A      -0.010400
     12 HN9         -2.9370     1.5260    -0.0190 hn         1 M1A       0.354700
     13 H8          -3.6780    -0.8840     0.0750 h5         1 M1A       0.104800
     14 HN61         0.7150    -2.8010     0.1070 hn         1 M1A       0.489800
     15 HN62         2.3250    -2.2040     0.0780 hn         1 M1A       0.489800
     16 H2           1.8400     2.3620    -0.0770 h5         1 M1A       0.088100
     17 H11          3.3980    -0.3680     0.9070 h1         1 M1A       0.085700
     18 H12          3.3970    -0.4180    -0.8780 h1         1 M1A       0.085700
     19 H13          3.5490     1.1200    -0.0270 h1         1 M1A       0.085700
@<TRIPOS>BOND
     1     1     2 1   
     2     1    10 2   
     3     1    12 1   
     4     2     3 2   
     5     2    13 1   
     6     3     4 1   
     7     4     5 2   
     8     4    10 1   
     9     5     6 1   
    10     5     7 1   
    11     6    14 1   
    12     6    15 1   
    13     7     8 1   
    14     7    11 1   
    15     8     9 2   
    16     8    16 1   
    17     9    10 1   
    18    11    17 1   
    19    11    18 1   
    20    11    19 1   
@<TRIPOS>SUBSTRUCTURE
     1 M1A         1 TEMP              0 ****  ****    0 ROOT
