@<TRIPOS>MOLECULE
M1A
   19    20     1     0     0
SMALL
No Charge or Current Charge


@<TRIPOS>ATOM
      1 N9          -2.3070     0.7150    -0.0120 na         1 M1A      -0.294800
      2 C8          -2.6650    -0.6280     0.0960 cc         1 M1A       0.450700
      3 N7          -1.5600    -1.4060     0.1540 nd         1 M1A      -0.523100
      4 C5          -0.5420    -0.4680     0.0790 cd         1 M1A      -0.077600
      5 C6           0.7910    -0.7800     0.0930 cc         1 M1A       0.478000
      6 N6           1.2970    -2.0440     0.1890 nv         1 M1A      -1.041000
      7 N1           1.6730     0.3190     0.0130 na         1 M1A      -0.228500
      8 C2           1.1230     1.6320    -0.1080 cc         1 M1A       0.577400
      9 N3          -0.1930     1.9260    -0.1260 nd         1 M1A      -0.629000
     10 C4          -0.9630     0.8190    -0.0240 cd         1 M1A       0.324000
     11 CN1          3.1460     0.1470     0.0570 c3         1 M1A       0.018900
     12 HN9         -2.9500     1.4880    -0.0740 hn         1 M1A       0.405000
     13 H8          -3.6960    -0.9610     0.1250 h5         1 M1A       0.104800
     14 HN61         0.6130    -2.7930     0.0950 hn         1 M1A       0.545000
     15 HN62         2.2060    -2.2410    -0.2190 hn         1 M1A       0.545000
     16 H2           1.8420     2.4380    -0.1820 h5         1 M1A       0.088100
     17 H11          3.4280    -0.4610     0.9270 h1         1 M1A       0.085700
     18 H12          3.4940    -0.3450    -0.8600 h1         1 M1A       0.085700
     19 H13          3.6490     1.1190     0.1420 h1         1 M1A       0.085700
@<TRIPOS>BOND
     1     1     2 1   
     2     1    10 2   
     3     1    12 1   
     4     2     3 2   
     5     2    13 1   
     6     3     4 1   
     7     4     5 2   
     8     4    10 1   
     9     5     6 1   
    10     5     7 1   
    11     6    14 1   
    12     6    15 1   
    13     7     8 1   
    14     7    11 1   
    15     8     9 2   
    16     8    16 1   
    17     9    10 1   
    18    11    17 1   
    19    11    18 1   
    20    11    19 1   
@<TRIPOS>SUBSTRUCTURE
     1 M1A         1 TEMP              0 ****  ****    0 ROOT
