@<TRIPOS>MOLECULE
M1B
   45    48     1     0     0
SMALL
No Charge or Current Charge


@<TRIPOS>ATOM
      1 C1           2.4660    -3.5370    13.3120 ca         1 M1B      -0.078000
      2 C2           1.4990    -4.1520    12.5020 ca         1 M1B      -0.115000
      3 C3           1.4250    -3.8480    11.1340 ca         1 M1B      -0.086000
      4 C4           2.3120    -2.9150    10.5470 cp         1 M1B      -0.040000
      5 C5           3.2820    -2.3030    11.3820 ca         1 M1B      -0.081000
      6 C6           3.3850    -2.6150    12.7590 ca         1 M1B      -0.195900
      7 C7           2.2280    -2.5840     9.0880 cp         1 M1B      -0.019000
      8 C8           1.8910    -3.5710     8.1310 ca         1 M1B      -0.103500
      9 C9           1.8120    -3.2660     6.7610 ca         1 M1B      -0.081500
     10 C10          2.0660    -1.9550     6.2990 ca         1 M1B      -0.112900
     11 C11          2.4010    -0.9640     7.2470 ca         1 M1B      -0.081500
     12 C12          2.4810    -1.2740     8.6150 ca         1 M1B      -0.103500
     13 C13          1.9860    -1.6200     4.8660 cc         1 M1B       0.473400
     14 C14          4.3910    -1.9290    13.6270 ce         1 M1B       0.661800
     15 N15          4.9080    -0.8060    13.3470 n2         1 M1B      -0.842100
     16 N16          4.8870    -2.6110    14.6740 nv         1 M1B      -1.033200
     17 N17          1.6610    -2.5340     3.8640 na         1 M1B      -0.307600
     18 C18          1.6870    -1.8590     2.6840 ca         1 M1B      -0.068200
     19 C19          2.0210    -0.5710     2.9740 ca         1 M1B       0.066400
     20 N20          2.2140    -0.3960     4.3410 nd         1 M1B      -0.567100
     21 C21          2.1350     0.3870     1.9550 ca         1 M1B      -0.028000
     22 C22          1.4460    -2.3060     1.3830 ca         1 M1B      -0.120000
     23 C23          1.5520    -1.3640     0.3380 ca         1 M1B      -0.069000
     24 C24          1.8810    -0.0040     0.6110 ca         1 M1B      -0.219900
     25 C25          2.0330     0.9780    -0.5010 ce         1 M1B       0.662800
     26 N26          1.2370     0.8350    -1.5730 nv         1 M1B      -1.034200
     27 N27          2.7470     2.0220    -0.4210 n2         1 M1B      -0.845100
     28 H1           2.4890    -3.7740    14.3740 ha         1 M1B       0.126000
     29 H2           0.7980    -4.8610    12.9380 ha         1 M1B       0.119000
     30 H3           0.6580    -4.3270    10.5290 ha         1 M1B       0.117000
     31 H5           3.9830    -1.6000    10.9380 ha         1 M1B       0.122000
     32 H8           1.7030    -4.5930     8.4510 ha         1 M1B       0.120000
     33 H9           1.5530    -4.0620     6.0670 ha         1 M1B       0.124500
     34 H11          2.6000     0.0570     6.9280 ha         1 M1B       0.124500
     35 H12          2.7280    -0.4820     9.3180 ha         1 M1B       0.120000
     36 HN15         4.3790    -0.4060    12.5620 hn         1 M1B       0.388400
     37 H161         5.7710    -2.2480    15.0090 hn         1 M1B       0.470000
     38 H162         4.8190    -3.6190    14.6100 hn         1 M1B       0.470000
     39 HN17         1.4480    -3.5110     4.0010 hn         1 M1B       0.359000
     40 H21          2.3970     1.4100     2.2120 ha         1 M1B       0.136000
     41 H22          1.1930    -3.3440     1.1790 ha         1 M1B       0.121000
     42 H23          1.3890    -1.6970    -0.6850 ha         1 M1B       0.126000
     43 H261         1.1350     1.6830    -2.1170 hn         1 M1B       0.467500
     44 H262         0.3890     0.3040    -1.4190 hn         1 M1B       0.467500
     45 HN27         3.3380     1.9350     0.4150 hn         1 M1B       0.389400
@<TRIPOS>BOND
     1     1     2 ar  
     2     1     6 ar  
     3     1    28 1   
     4     2     3 ar  
     5     2    29 1   
     6     3     4 ar  
     7     3    30 1   
     8     4     5 ar  
     9     4     7 1   
    10     5     6 ar  
    11     5    31 1   
    12     6    14 1   
    13     7     8 ar  
    14     7    12 ar  
    15     8     9 ar  
    16     8    32 1   
    17     9    10 ar  
    18     9    33 1   
    19    10    11 ar  
    20    10    13 1   
    21    11    12 ar  
    22    11    34 1   
    23    12    35 1   
    24    13    17 1   
    25    13    20 2   
    26    14    15 2   
    27    14    16 1   
    28    15    36 1   
    29    16    37 1   
    30    16    38 1   
    31    17    18 1   
    32    17    39 1   
    33    18    19 ar  
    34    18    22 ar  
    35    19    20 1   
    36    19    21 ar  
    37    21    24 ar  
    38    21    40 1   
    39    22    23 ar  
    40    22    41 1   
    41    23    24 ar  
    42    23    42 1   
    43    24    25 1   
    44    25    26 1   
    45    25    27 2   
    46    26    43 1   
    47    26    44 1   
    48    27    45 1   
@<TRIPOS>SUBSTRUCTURE
     1 M1B         1 TEMP              0 ****  ****    0 ROOT
