@<TRIPOS>MOLECULE
M1B
   45    48     1     0     0
SMALL
abcg2


@<TRIPOS>ATOM
      1 C1           2.5520    -3.5650    13.2010 ca         1 M1B      -0.078000
      2 C2           1.6520    -4.2500    12.3970 ca         1 M1B      -0.115000
      3 C3           1.5480    -3.9510    11.0480 ca         1 M1B      -0.086000
      4 C4           2.3450    -2.9550    10.4790 cp         1 M1B      -0.040000
      5 C5           3.2380    -2.2690    11.2990 ca         1 M1B      -0.081000
      6 C6           3.3490    -2.5630    12.6540 ca         1 M1B      -0.195900
      7 C7           2.2470    -2.6350     9.0430 cp         1 M1B      -0.019000
      8 C8           2.0080    -3.6330     8.0980 ca         1 M1B      -0.103500
      9 C9           1.9150    -3.3330     6.7500 ca         1 M1B      -0.081500
     10 C10          2.0580    -2.0190     6.3050 ca         1 M1B      -0.112900
     11 C11          2.3020    -1.0170     7.2450 ca         1 M1B      -0.081500
     12 C12          2.3930    -1.3210     8.5890 ca         1 M1B      -0.103500
     13 C13          1.9690    -1.6670     4.8910 cc         1 M1B       0.473400
     14 C14          4.3080    -1.7920    13.4970 ce         1 M1B       0.661800
     15 N15          4.5760    -0.5520    13.3410 n2         1 M1B      -0.842100
     16 N16          4.8700    -2.4980    14.5170 nv         1 M1B      -1.033200
     17 N17          1.4730    -2.5130     3.9440 na         1 M1B      -0.307600
     18 C18          1.5330    -1.8650     2.7440 ca         1 M1B      -0.068200
     19 C19          2.0930    -0.6120     3.0440 ca         1 M1B       0.066400
     20 N20          2.3490    -0.5220     4.3870 nd         1 M1B      -0.567100
     21 C21          2.3040     0.3180     2.0310 ca         1 M1B      -0.028000
     22 C22          1.1630    -2.2230     1.4540 ca         1 M1B      -0.120000
     23 C23          1.3690    -1.2830     0.4630 ca         1 M1B      -0.069000
     24 C24          1.9370    -0.0230     0.7360 ca         1 M1B      -0.219900
     25 C25          2.1700     0.9530    -0.3650 ce         1 M1B       0.662800
     26 N26          1.2460     0.9240    -1.3680 nv         1 M1B      -1.034200
     27 N27          3.1660     1.7530    -0.4300 n2         1 M1B      -0.845100
     28 H1           2.6140    -3.8010    14.2550 ha         1 M1B       0.126000
     29 H2           1.0210    -5.0160    12.8280 ha         1 M1B       0.119000
     30 H3           0.8290    -4.4820    10.4380 ha         1 M1B       0.117000
     31 H5           3.8890    -1.5190    10.8640 ha         1 M1B       0.122000
     32 H8           1.9150    -4.6650     8.4110 ha         1 M1B       0.120000
     33 H9           1.7540    -4.1460     6.0540 ha         1 M1B       0.124500
     34 H11          2.4080     0.0090     6.9170 ha         1 M1B       0.124500
     35 H12          2.5550    -0.5190     9.2970 ha         1 M1B       0.120000
     36 HN15         4.0000    -0.1480    12.6120 hn         1 M1B       0.388400
     37 H161         5.6090    -2.0370    15.0240 hn         1 M1B       0.470000
     38 H162         5.0040    -3.4890    14.3980 hn         1 M1B       0.470000
     39 HN17         1.0760    -3.4260     4.1000 hn         1 M1B       0.359000
     40 H21          2.7240     1.2900     2.2610 ha         1 M1B       0.136000
     41 H22          0.7370    -3.1910     1.2260 ha         1 M1B       0.121000
     42 H23          1.1040    -1.5360    -0.5550 ha         1 M1B       0.126000
     43 H261         1.3160     1.6580    -2.0550 hn         1 M1B       0.467500
     44 H262         0.3020     0.6590    -1.1400 hn         1 M1B       0.467500
     45 HN27         3.8160     1.5750     0.3270 hn         1 M1B       0.389400
@<TRIPOS>BOND
     1     1     2 ar  
     2     1     6 ar  
     3     1    28 1   
     4     2     3 ar  
     5     2    29 1   
     6     3     4 ar  
     7     3    30 1   
     8     4     5 ar  
     9     4     7 1   
    10     5     6 ar  
    11     5    31 1   
    12     6    14 1   
    13     7     8 ar  
    14     7    12 ar  
    15     8     9 ar  
    16     8    32 1   
    17     9    10 ar  
    18     9    33 1   
    19    10    11 ar  
    20    10    13 1   
    21    11    12 ar  
    22    11    34 1   
    23    12    35 1   
    24    13    17 1   
    25    13    20 2   
    26    14    15 2   
    27    14    16 1   
    28    15    36 1   
    29    16    37 1   
    30    16    38 1   
    31    17    18 1   
    32    17    39 1   
    33    18    19 ar  
    34    18    22 ar  
    35    19    20 1   
    36    19    21 ar  
    37    21    24 ar  
    38    21    40 1   
    39    22    23 ar  
    40    22    41 1   
    41    23    24 ar  
    42    23    42 1   
    43    24    25 1   
    44    25    26 1   
    45    25    27 2   
    46    26    43 1   
    47    26    44 1   
    48    27    45 1   
@<TRIPOS>SUBSTRUCTURE
     1 M1B         1 TEMP              0 ****  ****    0 ROOT
