@<TRIPOS>MOLECULE
M1C
   36    36     1     0     0
SMALL
No Charge or Current Charge


@<TRIPOS>ATOM
      1 C13         -0.0100    -0.3930    -5.1410 cx         1 M1C      -0.124400
      2 C12         -1.2750    -0.4140    -4.3170 cx         1 M1C      -0.124400
      3 C11         -0.1990     0.5990    -4.0220 cx         1 M1C       0.104500
      4 N3          -1.6340    -0.2060     0.8520 n8         1 M1C      -1.004200
      5 C2          -0.3040     0.4540     1.0050 c3         1 M1C       0.150500
      6 C1           0.6160     0.3240    -0.2890 c3         1 M1C       0.408000
      7 C9          -0.0130     0.9630    -1.5750 c3         1 M1C       0.106800
      8 N10          0.5910     0.3930    -2.8290 n7         1 M1C      -0.876400
      9 O8           1.9030     0.8820    -0.0620 oh         1 M1C      -0.667500
     10 O14          0.8510    -1.0280    -0.6260 oh         1 M1C      -0.667500
     11 C4           0.3680    -0.0740     2.3090 c3         1 M1C      -0.110400
     12 C5          -0.4320     0.1900     3.6110 c3         1 M1C      -0.079400
     13 C6           0.3220    -0.2600     4.8810 c3         1 M1C      -0.075400
     14 C7          -0.4690     0.0010     6.1780 c3         1 M1C      -0.089100
     15 H131        -0.0750    -0.0200    -6.1600 hc         1 M1C       0.076200
     16 H132         0.7030    -1.2000    -4.9950 hc         1 M1C       0.076200
     17 H121        -1.4100    -1.2340    -3.6160 hc         1 M1C       0.076200
     18 H122        -2.1900    -0.0550    -4.7810 hc         1 M1C       0.076200
     19 H11         -0.3950     1.6360    -4.3010 h1         1 M1C       0.057700
     20 HN32        -2.0510    -0.3170     1.7820 hn         1 M1C       0.403500
     21 H2          -0.4960     1.5260     1.1570 h1         1 M1C       0.047700
     22 H91          0.0890     2.0560    -1.5410 h1         1 M1C       0.055200
     23 H92         -1.0910     0.7500    -1.5620 h1         1 M1C       0.055200
     24 H10          1.5190     0.8130    -2.9870 hn         1 M1C       0.432000
     25 HO8          2.2630     1.0910    -0.9460 ho         1 M1C       0.464500
     26 H14          0.7900    -0.9640    -1.6130 ho         1 M1C       0.464500
     27 H41          1.3490     0.4030     2.4190 hc         1 M1C       0.060700
     28 H42          0.5590    -1.1500     2.2110 hc         1 M1C       0.060700
     29 H51         -1.3950    -0.3350     3.5720 hc         1 M1C       0.032200
     30 H52         -0.6530     1.2620     3.6860 hc         1 M1C       0.032200
     31 H61          1.2840     0.2660     4.9400 hc         1 M1C       0.040200
     32 H62          0.5470    -1.3310     4.8110 hc         1 M1C       0.040200
     33 H71          0.1060    -0.3330     7.0500 hc         1 M1C       0.031367
     34 H72         -0.6800     1.0700     6.2950 hc         1 M1C       0.031367
     35 H73         -1.4220    -0.5420     6.1670 hc         1 M1C       0.031367
     36 HN31        -1.4690    -1.1720     0.5460 hn         1 M1C       0.403500
@<TRIPOS>BOND
     1     1     2 1   
     2     1     3 1   
     3     1    15 1   
     4     1    16 1   
     5     2     3 1   
     6     2    17 1   
     7     2    18 1   
     8     3     8 1   
     9     3    19 1   
    10     4     5 1   
    11     4    20 1   
    12     4    36 1   
    13     5     6 1   
    14     5    11 1   
    15     5    21 1   
    16     6     7 1   
    17     6     9 1   
    18     6    10 1   
    19     7     8 1   
    20     7    22 1   
    21     7    23 1   
    22     8    24 1   
    23     9    25 1   
    24    10    26 1   
    25    11    12 1   
    26    11    27 1   
    27    11    28 1   
    28    12    13 1   
    29    12    29 1   
    30    12    30 1   
    31    13    14 1   
    32    13    31 1   
    33    13    32 1   
    34    14    33 1   
    35    14    34 1   
    36    14    35 1   
@<TRIPOS>SUBSTRUCTURE
     1 M1C         1 TEMP              0 ****  ****    0 ROOT
