@<TRIPOS>MOLECULE
M1C
   36    36     1     0     0
SMALL
abcg2


@<TRIPOS>ATOM
      1 C13          0.1630    -0.3610    -5.0590 cx         1 M1C      -0.124400
      2 C12         -1.1140    -0.5590    -4.2960 cx         1 M1C      -0.124400
      3 C11         -0.1950     0.5660    -3.9430 cx         1 M1C       0.104500
      4 N3          -1.6820    -0.0830     0.7390 n8         1 M1C      -1.004200
      5 C2          -0.3370     0.4280     0.9670 c3         1 M1C       0.150500
      6 C1           0.4970     0.2430    -0.3130 c3         1 M1C       0.408000
      7 C9          -0.1580     0.8980    -1.5390 c3         1 M1C       0.106800
      8 N10          0.5470     0.4500    -2.7270 n7         1 M1C      -0.876400
      9 O8           1.8000     0.7770    -0.1410 oh         1 M1C      -0.667500
     10 O14          0.6540    -1.1110    -0.5610 oh         1 M1C      -0.667500
     11 C4           0.3500    -0.1610     2.2060 c3         1 M1C      -0.110400
     12 C5          -0.3250     0.2440     3.5120 c3         1 M1C      -0.079400
     13 C6           0.3440    -0.3670     4.7370 c3         1 M1C      -0.075400
     14 C7          -0.2920     0.0800     6.0460 c3         1 M1C      -0.089100
     15 H131         0.1060     0.0110    -6.0730 hc         1 M1C       0.076200
     16 H132         0.9700    -1.0620    -4.8810 hc         1 M1C       0.076200
     17 H121        -1.1630    -1.3900    -3.6030 hc         1 M1C       0.076200
     18 H122        -2.0500    -0.3240    -4.7860 hc         1 M1C       0.076200
     19 H11         -0.5260     1.5640    -4.2310 h1         1 M1C       0.057700
     20 HN32        -2.2700     0.1310     1.5330 hn         1 M1C       0.403500
     21 H2          -0.4330     1.5120     1.1190 h1         1 M1C       0.047700
     22 H91         -0.1760     1.9910    -1.4220 h1         1 M1C       0.055200
     23 H92         -1.1940     0.5700    -1.6100 h1         1 M1C       0.055200
     24 H10          1.4350     0.9270    -2.8120 hn         1 M1C       0.432000
     25 HO8          1.7260     1.7160     0.0630 ho         1 M1C       0.464500
     26 H14          0.7740    -1.1760    -1.5260 ho         1 M1C       0.464500
     27 H41          1.3940     0.1590     2.2470 hc         1 M1C       0.060700
     28 H42          0.3640    -1.2530     2.1240 hc         1 M1C       0.060700
     29 H51         -1.3820    -0.0460     3.5050 hc         1 M1C       0.032200
     30 H52         -0.3130     1.3360     3.6000 hc         1 M1C       0.032200
     31 H61          1.4060    -0.1040     4.7370 hc         1 M1C       0.040200
     32 H62          0.3040    -1.4580     4.6630 hc         1 M1C       0.040200
     33 H71          0.2010    -0.3730     6.9070 hc         1 M1C       0.031367
     34 H72         -0.2310     1.1640     6.1630 hc         1 M1C       0.031367
     35 H73         -1.3480    -0.1940     6.0880 hc         1 M1C       0.031367
     36 HN31        -1.6480    -1.0940     0.6770 hn         1 M1C       0.403500
@<TRIPOS>BOND
     1     1     2 1   
     2     1     3 1   
     3     1    15 1   
     4     1    16 1   
     5     2     3 1   
     6     2    17 1   
     7     2    18 1   
     8     3     8 1   
     9     3    19 1   
    10     4     5 1   
    11     4    20 1   
    12     4    36 1   
    13     5     6 1   
    14     5    11 1   
    15     5    21 1   
    16     6     7 1   
    17     6     9 1   
    18     6    10 1   
    19     7     8 1   
    20     7    22 1   
    21     7    23 1   
    22     8    24 1   
    23     9    25 1   
    24    10    26 1   
    25    11    12 1   
    26    11    27 1   
    27    11    28 1   
    28    12    13 1   
    29    12    29 1   
    30    12    30 1   
    31    13    14 1   
    32    13    31 1   
    33    13    32 1   
    34    14    33 1   
    35    14    34 1   
    36    14    35 1   
@<TRIPOS>SUBSTRUCTURE
     1 M1C         1 TEMP              0 ****  ****    0 ROOT
