@<TRIPOS>MOLECULE
M1D
   32    33     1     0     0
SMALL
No Charge or Current Charge


@<TRIPOS>ATOM
      1 O3          -4.3470     1.1760     0.6780 o          1 M1D      -0.579000
      2 C9          -3.2590     0.7140     0.3560 c          1 M1D       0.618000
      3 N3          -3.0230    -0.6700     0.4140 n          1 M1D      -0.360300
      4 C10         -4.1170    -1.5560     0.8850 c3         1 M1D       0.107300
      5 C5          -1.8050    -1.1710     0.0210 cc         1 M1D       0.414900
      6 N1          -1.4500    -2.4850     0.0120 nc         1 M1D      -0.726000
      7 C4          -0.2000    -2.5110    -0.4410 cd         1 M1D       0.435400
      8 N2          -2.2170     1.5520    -0.0850 n          1 M1D      -0.376400
      9 C8          -2.4750     3.0170    -0.1340 c3         1 M1D       0.088300
     10 C7          -0.9620     1.0860    -0.5040 c          1 M1D       0.632600
     11 O2          -0.0740     1.8220    -0.9090 o          1 M1D      -0.512000
     12 C6          -0.8120    -0.3700    -0.4180 cd         1 M1D      -0.335600
     13 N            0.2400    -1.2230    -0.7220 na         1 M1D      -0.088500
     14 C3           1.5720    -0.8590    -1.2330 c3         1 M1D       0.060600
     15 C2           2.5460    -0.4260    -0.1170 c3         1 M1D      -0.070400
     16 C1           3.9520    -0.0550    -0.6500 c3         1 M1D      -0.208400
     17 C            4.8720     0.3530     0.5140 c          1 M1D       0.721000
     18 O1           5.5070    -0.5240     1.0800 o          1 M1D      -0.733500
     19 O            4.8840     1.5260     0.8550 o          1 M1D      -0.733500
     20 H1          -4.5420    -1.1630     1.8180 h1         1 M1D       0.051700
     21 H2          -4.9060    -1.6020     0.1240 h1         1 M1D       0.051700
     22 H3          -3.7540    -2.5720     1.0790 h1         1 M1D       0.051700
     23 H4           0.4260    -3.3840    -0.5850 h5         1 M1D       0.059100
     24 H5          -3.0770     3.3300     0.7280 h1         1 M1D       0.053367
     25 H6          -1.5400     3.5900    -0.1070 h1         1 M1D       0.053367
     26 H7          -3.0160     3.2630    -1.0560 h1         1 M1D       0.053367
     27 H8           1.9900    -1.7240    -1.7640 h1         1 M1D       0.057700
     28 H9           1.4610    -0.0470    -1.9620 h1         1 M1D       0.057700
     29 H10          2.1220     0.4330     0.4170 hc         1 M1D       0.060700
     30 H11          2.6380    -1.2410     0.6130 hc         1 M1D       0.060700
     31 H12          4.3350    -0.9580    -1.1420 hc         1 M1D       0.018700
     32 H13          3.8000     0.7900    -1.3340 hc         1 M1D       0.018700
@<TRIPOS>BOND
     1     1     2 2   
     2     2     3 1   
     3     2     8 1   
     4     3     4 1   
     5     3     5 1   
     6     4    20 1   
     7     4    21 1   
     8     4    22 1   
     9     5     6 1   
    10     5    12 2   
    11     6     7 2   
    12     7    13 1   
    13     7    23 1   
    14     8     9 1   
    15     8    10 1   
    16     9    24 1   
    17     9    25 1   
    18     9    26 1   
    19    10    11 2   
    20    10    12 1   
    21    12    13 1   
    22    13    14 1   
    23    14    15 1   
    24    14    27 1   
    25    14    28 1   
    26    15    16 1   
    27    15    29 1   
    28    15    30 1   
    29    16    17 1   
    30    16    31 1   
    31    16    32 1   
    32    17    18 1   
    33    17    19 1   
@<TRIPOS>SUBSTRUCTURE
     1 M1D         1 TEMP              0 ****  ****    0 ROOT
