@<TRIPOS>MOLECULE
M1D
   32    33     1     0     0
SMALL
abcg2


@<TRIPOS>ATOM
      1 O3          -4.2670     1.2360     0.6230 o          1 M1D      -0.579000
      2 C9          -3.2030     0.7240     0.3310 c          1 M1D       0.618000
      3 N3          -3.0250    -0.6320     0.3910 n          1 M1D      -0.360300
      4 C10         -4.1400    -1.4680     0.8020 c3         1 M1D       0.107300
      5 C5          -1.8270    -1.1690     0.0160 cc         1 M1D       0.414900
      6 N1          -1.5080    -2.4730    -0.0120 nc         1 M1D      -0.726000
      7 C4          -0.2620    -2.4850    -0.4550 cd         1 M1D       0.435400
      8 N2          -2.1230     1.5030    -0.0740 n          1 M1D      -0.376400
      9 C8          -2.3650     2.9410    -0.0870 c3         1 M1D       0.088300
     10 C7          -0.8770     1.0340    -0.5070 c          1 M1D       0.632600
     11 O2          -0.0080     1.7870    -0.9110 o          1 M1D      -0.512000
     12 C6          -0.7850    -0.3840    -0.4080 cd         1 M1D      -0.335600
     13 N            0.2250    -1.2680    -0.7160 na         1 M1D      -0.088500
     14 C3           1.5770    -0.9660    -1.1600 c3         1 M1D       0.060600
     15 C2           2.4520    -0.4070    -0.0490 c3         1 M1D      -0.070400
     16 C1           3.8530    -0.1130    -0.5610 c3         1 M1D      -0.208400
     17 C            4.8110     0.5090     0.4730 c          1 M1D       0.721000
     18 O1           6.0260     0.4570     0.1950 o          1 M1D      -0.733500
     19 O            4.3040     1.0360     1.4830 o          1 M1D      -0.733500
     20 H1          -4.5150    -1.1550     1.7740 h1         1 M1D       0.051700
     21 H2          -4.9500    -1.4230     0.0760 h1         1 M1D       0.051700
     22 H3          -3.7900    -2.4920     0.8750 h1         1 M1D       0.051700
     23 H4           0.3280    -3.3770    -0.6040 h5         1 M1D       0.059100
     24 H5          -2.7190     3.2720     0.8860 h1         1 M1D       0.053367
     25 H6          -1.4360     3.4490    -0.3120 h1         1 M1D       0.053367
     26 H7          -3.1040     3.2060    -0.8420 h1         1 M1D       0.053367
     27 H8           1.9920    -1.8980    -1.5450 h1         1 M1D       0.057700
     28 H9           1.5160    -0.2690    -1.9960 h1         1 M1D       0.057700
     29 H10          2.0040     0.5050     0.3460 hc         1 M1D       0.060700
     30 H11          2.4900    -1.1270     0.7730 hc         1 M1D       0.060700
     31 H12          4.3060    -1.0230    -0.9660 hc         1 M1D       0.018700
     32 H13          3.7890     0.5810    -1.4090 hc         1 M1D       0.018700
@<TRIPOS>BOND
     1     1     2 2   
     2     2     3 1   
     3     2     8 1   
     4     3     4 1   
     5     3     5 1   
     6     4    20 1   
     7     4    21 1   
     8     4    22 1   
     9     5     6 1   
    10     5    12 2   
    11     6     7 2   
    12     7    13 1   
    13     7    23 1   
    14     8     9 1   
    15     8    10 1   
    16     9    24 1   
    17     9    25 1   
    18     9    26 1   
    19    10    11 2   
    20    10    12 1   
    21    12    13 1   
    22    13    14 1   
    23    14    15 1   
    24    14    27 1   
    25    14    28 1   
    26    15    16 1   
    27    15    29 1   
    28    15    30 1   
    29    16    17 1   
    30    16    31 1   
    31    16    32 1   
    32    17    18 1   
    33    17    19 1   
@<TRIPOS>SUBSTRUCTURE
     1 M1D         1 TEMP              0 ****  ****    0 ROOT
