@<TRIPOS>MOLECULE
M1E
   18    19     1     0     0
SMALL
abcg2


@<TRIPOS>ATOM
      1 C01          3.3610    -1.1290    -0.0260 c3         1 M1E       0.226100
      2 C03          1.1360    -0.1150    -0.0080 ca         1 M1E       0.430900
      3 C05          0.9150     2.1630     0.0010 ca         1 M1E       0.166900
      4 C07         -0.9960     1.0000    -0.0050 ca         1 M1E       0.163800
      5 C08         -2.4090     0.7660    -0.0050 cc         1 M1E      -0.291800
      6 C09         -2.7030    -0.5540    -0.0060 cd         1 M1E      -0.138400
      7 C11         -0.2750    -0.1900    -0.0080 ca         1 M1E      -0.349000
      8 N02          1.9180    -1.1980    -0.0070 nu         1 M1E      -0.929100
      9 N04          1.7040     1.0890    -0.0040 nb         1 M1E      -0.277000
     10 N06         -0.3970     2.2070     0.0000 nb         1 M1E      -0.190000
     11 S10         -1.3100    -1.5710    -0.0080 ss         1 M1E       0.070400
     12 H1           3.7340    -0.6680    -0.9420 h1         1 M1E       0.044367
     13 H2           3.7440    -0.5650     0.8230 h1         1 M1E       0.044367
     14 H3           3.7460    -2.1430     0.0310 h1         1 M1E       0.044367
     15 H4           1.4310     3.1180     0.0050 h5         1 M1E       0.045100
     16 H5          -3.1480     1.5530    -0.0030 ha         1 M1E       0.221000
     17 H6          -3.6830    -1.0070    -0.0060 h4         1 M1E       0.220000
     18 H7           1.4940    -2.1090    -0.0490 hn         1 M1E       0.499000
@<TRIPOS>BOND
     1     1     8 1   
     2     1    12 1   
     3     1    13 1   
     4     1    14 1   
     5     2     7 ar  
     6     2     8 1   
     7     2     9 ar  
     8     3     9 ar  
     9     3    10 ar  
    10     3    15 1   
    11     4     5 1   
    12     4     7 ar  
    13     4    10 ar  
    14     5     6 2   
    15     5    16 1   
    16     6    11 1   
    17     6    17 1   
    18     7    11 1   
    19     8    18 1   
@<TRIPOS>SUBSTRUCTURE
     1 M1E         1 TEMP              0 ****  ****    0 ROOT
