@<TRIPOS>MOLECULE
M1E
   18    19     1     0     0
SMALL
No Charge or Current Charge


@<TRIPOS>ATOM
      1 C01          3.4060    -1.2140    -0.0230 c3         1 M1E       0.226100
      2 C03          1.1270    -0.0370    -0.0140 ca         1 M1E       0.430900
      3 C05          0.9020     2.2500    -0.0110 ca         1 M1E       0.166900
      4 C07         -1.0110     1.0140    -0.0060 ca         1 M1E       0.163800
      5 C08         -2.4290     0.7690    -0.0020 cc         1 M1E      -0.291800
      6 C09         -2.7150    -0.5890    -0.0030 cd         1 M1E      -0.138400
      7 C11         -0.2660    -0.1440    -0.0100 ca         1 M1E      -0.349000
      8 N02          1.9310    -1.1660    -0.0180 nu         1 M1E      -0.929100
      9 N04          1.7230     1.1720    -0.0150 nb         1 M1E      -0.277000
     10 N06         -0.4520     2.2360    -0.0070 nb         1 M1E      -0.190000
     11 S10         -1.2530    -1.6220    -0.0090 ss         1 M1E       0.070400
     12 H1           3.8050    -0.7130    -0.9150 h1         1 M1E       0.044367
     13 H2           3.8110    -0.7150     0.8680 h1         1 M1E       0.044367
     14 H3           3.7570    -2.2550    -0.0250 h1         1 M1E       0.044367
     15 H4           1.3790     3.2280    -0.0110 h5         1 M1E       0.045100
     16 H5          -3.1890     1.5470     0.0010 ha         1 M1E       0.221000
     17 H6          -3.6930    -1.0610    -0.0000 h4         1 M1E       0.220000
     18 H7           1.4290    -2.0530    -0.0180 hn         1 M1E       0.499000
@<TRIPOS>BOND
     1     1     8 1   
     2     1    12 1   
     3     1    13 1   
     4     1    14 1   
     5     2     7 ar  
     6     2     8 1   
     7     2     9 ar  
     8     3     9 ar  
     9     3    10 ar  
    10     3    15 1   
    11     4     5 1   
    12     4     7 ar  
    13     4    10 ar  
    14     5     6 2   
    15     5    16 1   
    16     6    11 1   
    17     6    17 1   
    18     7    11 1   
    19     8    18 1   
@<TRIPOS>SUBSTRUCTURE
     1 M1E         1 TEMP              0 ****  ****    0 ROOT
