@<TRIPOS>MOLECULE
M1H
   26    27     1     0     0
SMALL
bcc


@<TRIPOS>ATOM
      1 C10          2.2180    -1.6520    -0.3480 c6         1 M1H      -0.071400
      2 C01         -3.5340    -1.1220     0.0530 c3         1 M1H       0.218100
      3 C03         -1.2880    -0.1190     0.0240 ca         1 M1H       0.236600
      4 C04         -1.8070     1.1830     0.0200 ca         1 M1H      -0.346300
      5 C05         -0.9260     2.2460     0.0010 ca         1 M1H       0.444200
      6 C07          0.8980     0.8840    -0.0120 ca         1 M1H       0.460600
      7 C08          2.4040     0.8050    -0.0160 c6         1 M1H      -0.130700
      8 C09          2.9330    -0.5520     0.4180 c6         1 M1H      -0.074400
      9 C11          0.7280    -1.6460    -0.0310 c6         1 M1H      -0.014100
     10 C12          0.1210    -0.2660    -0.0160 ca         1 M1H      -0.276600
     11 N02         -2.0970    -1.2000     0.0720 nu         1 M1H      -0.786600
     12 N06          0.3930     2.1250    -0.0070 nb         1 M1H      -0.716000
     13 H1           2.3660    -1.4980    -1.4210 hc         1 M1H       0.041200
     14 H2           2.6340    -2.6320    -0.1090 hc         1 M1H       0.041200
     15 H3          -3.9340    -2.1310     0.0880 h1         1 M1H       0.035700
     16 H4          -3.9230    -0.5750     0.9150 h1         1 M1H       0.035700
     17 H5          -3.9130    -0.6380    -0.8520 h1         1 M1H       0.035700
     18 H6          -2.8720     1.3690     0.0360 ha         1 M1H       0.138000
     19 H7          -1.3180     3.2590    -0.0000 h4         1 M1H       0.011100
     20 H8           2.7630     1.0320    -1.0260 hc         1 M1H       0.061200
     21 H9           2.7940     1.6010     0.6230 hc         1 M1H       0.061200
     22 H10          2.7750    -0.6880     1.4930 hc         1 M1H       0.043200
     23 H11          4.0110    -0.6020     0.2530 hc         1 M1H       0.043200
     24 H12          0.2120    -2.2730    -0.7660 hc         1 M1H       0.036200
     25 H13          0.5570    -2.1240     0.9410 hc         1 M1H       0.036200
     26 H14         -1.6880    -2.1140     0.0040 hn         1 M1H       0.436800
@<TRIPOS>BOND
     1     1     8 1   
     2     1     9 1   
     3     1    13 1   
     4     1    14 1   
     5     2    11 1   
     6     2    15 1   
     7     2    16 1   
     8     2    17 1   
     9     3     4 ar  
    10     3    10 ar  
    11     3    11 1   
    12     4     5 ar  
    13     4    18 1   
    14     5    12 ar  
    15     5    19 1   
    16     6     7 1   
    17     6    10 ar  
    18     6    12 ar  
    19     7     8 1   
    20     7    20 1   
    21     7    21 1   
    22     8    22 1   
    23     8    23 1   
    24     9    10 1   
    25     9    24 1   
    26     9    25 1   
    27    11    26 1   
@<TRIPOS>SUBSTRUCTURE
     1 M1H         1 TEMP              0 ****  ****    0 ROOT
