@<TRIPOS>MOLECULE
M1H
   26    27     1     0     0
SMALL
No Charge or Current Charge


@<TRIPOS>ATOM
      1 C10          2.2390    -1.6720    -0.3540 c6         1 M1H      -0.071400
      2 C01         -3.6290    -1.1750     0.0310 c3         1 M1H       0.218100
      3 C03         -1.2950    -0.0780     0.0100 ca         1 M1H       0.375000
      4 C04         -1.8110     1.2200     0.0150 ca         1 M1H      -0.263000
      5 C05         -0.9300     2.3020     0.0070 ca         1 M1H       0.378900
      6 C07          0.9090     0.9010    -0.0010 ca         1 M1H       0.395300
      7 C08          2.4380     0.8270    -0.0110 c6         1 M1H      -0.130700
      8 C09          2.9860    -0.5570     0.4030 c6         1 M1H      -0.074400
      9 C11          0.7340    -1.6640    -0.0030 c6         1 M1H      -0.014100
     10 C12          0.1000    -0.2570    -0.0090 ca         1 M1H      -0.211300
     11 N02         -2.1540    -1.1800     0.0310 nu         1 M1H      -0.980200
     12 N06          0.4090     2.1540     0.0010 nb         1 M1H      -0.716000
     13 H1           2.3690    -1.5320    -1.4360 hc         1 M1H       0.041200
     14 H2           2.6730    -2.6510    -0.1110 hc         1 M1H       0.041200
     15 H3          -4.0150    -2.2040     0.0470 h1         1 M1H       0.035700
     16 H4          -4.0130    -0.6480     0.9150 h1         1 M1H       0.035700
     17 H5          -4.0120    -0.6760    -0.8690 h1         1 M1H       0.035700
     18 H6          -2.8780     1.4070     0.0270 ha         1 M1H       0.120000
     19 H7          -1.3060     3.3250     0.0110 h4         1 M1H       0.011100
     20 H8           2.7920     1.0680    -1.0230 hc         1 M1H       0.061200
     21 H9           2.8580     1.5960     0.6510 hc         1 M1H       0.061200
     22 H10          2.8650    -0.6980     1.4860 hc         1 M1H       0.043200
     23 H11          4.0640    -0.6120     0.1950 hc         1 M1H       0.043200
     24 H12          0.2110    -2.3230    -0.7090 hc         1 M1H       0.036200
     25 H13          0.5970    -2.1070     0.9930 hc         1 M1H       0.036200
     26 H14         -1.6940    -2.0920     0.0420 hn         1 M1H       0.492000
@<TRIPOS>BOND
     1     1     8 1   
     2     1     9 1   
     3     1    13 1   
     4     1    14 1   
     5     2    11 1   
     6     2    15 1   
     7     2    16 1   
     8     2    17 1   
     9     3     4 ar  
    10     3    10 ar  
    11     3    11 1   
    12     4     5 ar  
    13     4    18 1   
    14     5    12 ar  
    15     5    19 1   
    16     6     7 1   
    17     6    10 ar  
    18     6    12 ar  
    19     7     8 1   
    20     7    20 1   
    21     7    21 1   
    22     8    22 1   
    23     8    23 1   
    24     9    10 1   
    25     9    24 1   
    26     9    25 1   
    27    11    26 1   
@<TRIPOS>SUBSTRUCTURE
     1 M1H         1 TEMP              0 ****  ****    0 ROOT
