@<TRIPOS>MOLECULE
M1I
   59    62     1     0     0
SMALL
No Charge or Current Charge


@<TRIPOS>ATOM
      1 C4           6.2350    -3.6520     3.8010 ca         1 M1I       0.014200
      2 C5           6.5360    -4.9210     3.2660 ca         1 M1I      -0.196000
      3 C6           6.7120    -5.1110     1.8760 ca         1 M1I       0.157100
      4 C7           6.5930    -4.0100     0.9970 ca         1 M1I      -0.111300
      5 C8           6.3200    -2.7370     1.5320 ca         1 M1I      -0.065000
      6 C15          4.9200    -5.7410    -0.9510 c6         1 M1I       0.178800
      7 C17          6.0580    -3.4520     5.2550 cc         1 M1I      -0.140200
      8 C20          6.1930    -2.8680     8.0660 c          1 M1I       0.550200
      9 C22          6.7070    -2.3320     5.7390 cd         1 M1I      -0.025400
     10 C28          7.1130    -7.5400     2.1620 c3         1 M1I       0.146900
     11 C1           7.7850    -3.2820    -1.2090 cx         1 M1I      -0.109400
     12 C11          4.5360    -3.3250    -1.1880 c6         1 M1I       0.178800
     13 C12          3.3120    -3.6140    -2.1160 c6         1 M1I       0.162300
     14 C14          3.6930    -6.0240    -1.8770 c6         1 M1I       0.162300
     15 C16          1.4980    -5.2040    -2.6820 c3         1 M1I       0.153100
     16 C18          5.4490    -4.3840     6.1890 cc         1 M1I       0.025800
     17 C19          5.5330    -4.1070     7.5490 cd         1 M1I      -0.215400
     18 C2           6.7750    -4.1570    -0.5010 cx         1 M1I       0.184500
     19 C25          4.9450    -5.0130     8.6240 c3         1 M1I      -0.035900
     20 C27          4.6730    -5.5760     5.6620 c3         1 M1I      -0.061900
     21 C3           8.0400    -4.7630    -1.0660 cx         1 M1I      -0.109400
     22 C9           6.1470    -2.5600     2.9130 ca         1 M1I      -0.148000
     23 N10          5.5550    -4.4190    -1.2440 n3         1 M1I      -0.713600
     24 N13          2.6700    -4.9330    -1.8230 n3         1 M1I      -0.716600
     25 N21          6.7540    -2.0210     7.0900 n          1 M1I      -0.265000
     26 O23          6.2490    -2.5880     9.2590 o          1 M1I      -0.565000
     27 O26          7.0110    -6.3570     1.3510 os         1 M1I      -0.339100
     28 H33          6.6710    -5.7520     3.9470 ha         1 M1I       0.121000
     29 H34          6.2330    -1.8780     0.8710 ha         1 M1I       0.116000
     30 H44          4.5790    -5.7760     0.0940 h1         1 M1I       0.040950
     31 H43          5.6500    -6.5530    -1.0810 h1         1 M1I       0.040950
     32 H48          7.2500    -1.6260     5.1170 h4         1 M1I       0.202000
     33 H49          6.7370    -0.1740     8.1330 h1         1 M1I       0.054367
     34 H50          8.2980    -1.0450     8.1670 h1         1 M1I       0.054367
     35 H51          7.7800    -0.1910     6.6880 h1         1 M1I       0.054367
     36 H58          7.3380    -8.4110     1.5350 h1         1 M1I       0.041033
     37 H59          7.9180    -7.4380     2.9020 h1         1 M1I       0.041033
     38 H60          6.1700    -7.7340     2.6890 h1         1 M1I       0.041033
     39 H30          8.3870    -2.6080    -0.6060 hc         1 M1I       0.075700
     40 H29          7.5320    -2.9060    -2.1970 hc         1 M1I       0.075700
     41 H37          4.9850    -2.3670    -1.4880 h1         1 M1I       0.040950
     42 H36          4.1660    -3.2010    -0.1600 h1         1 M1I       0.040950
     43 H39          3.6530    -3.5850    -3.1620 h1         1 M1I       0.034950
     44 H38          2.5810    -2.8010    -1.9950 h1         1 M1I       0.034950
     45 H41          3.2430    -6.9820    -1.5790 h1         1 M1I       0.034950
     46 H42          4.0570    -6.1470    -2.9080 h1         1 M1I       0.034950
     47 H47          1.0250    -6.1550    -2.4030 h1         1 M1I       0.029033
     48 H45          0.7490    -4.4080    -2.5760 h1         1 M1I       0.029033
     49 H46          1.7920    -5.2620    -3.7390 h1         1 M1I       0.029033
     50 H53          5.5160    -4.9790     9.5590 hc         1 M1I       0.046700
     51 H54          3.9120    -4.7280     8.8530 hc         1 M1I       0.046700
     52 H52          4.9410    -6.0650     8.3160 hc         1 M1I       0.046700
     53 H57          3.7760    -5.7620     6.2630 hc         1 M1I       0.050700
     54 H55          4.3170    -5.4160     4.6390 hc         1 M1I       0.050700
     55 H56          5.2840    -6.4860     5.6830 hc         1 M1I       0.050700
     56 H31          7.9550    -5.3810    -1.9550 hc         1 M1I       0.075700
     57 H32          8.8100    -5.0750    -0.3660 hc         1 M1I       0.075700
     58 H35          5.9090    -1.5660     3.2830 ha         1 M1I       0.116000
     59 C24          7.4330    -0.7840     7.5440 c3         1 M1I       0.077300
@<TRIPOS>BOND
     1     1     2 ar  
     2     1     7 1   
     3     1    22 ar  
     4     2     3 ar  
     5     2    28 1   
     6     3     4 ar  
     7     3    27 1   
     8     4     5 ar  
     9     4    18 1   
    10     5    22 ar  
    11     5    29 1   
    12     6    14 1   
    13     6    23 1   
    14     6    30 1   
    15     6    31 1   
    16     7     9 2   
    17     7    16 1   
    18     8    17 1   
    19     8    25 1   
    20     8    26 2   
    21     9    25 1   
    22     9    32 1   
    23    10    27 1   
    24    10    36 1   
    25    10    37 1   
    26    10    38 1   
    27    11    18 1   
    28    11    21 1   
    29    11    39 1   
    30    11    40 1   
    31    12    13 1   
    32    12    23 1   
    33    12    41 1   
    34    12    42 1   
    35    13    24 1   
    36    13    43 1   
    37    13    44 1   
    38    14    24 1   
    39    14    45 1   
    40    14    46 1   
    41    15    24 1   
    42    15    47 1   
    43    15    48 1   
    44    15    49 1   
    45    16    17 2   
    46    16    20 1   
    47    17    19 1   
    48    18    21 1   
    49    18    23 1   
    50    19    50 1   
    51    19    51 1   
    52    19    52 1   
    53    20    53 1   
    54    20    54 1   
    55    20    55 1   
    56    21    56 1   
    57    21    57 1   
    58    22    58 1   
    59    25    59 1   
    60    33    59 1   
    61    34    59 1   
    62    35    59 1   
@<TRIPOS>SUBSTRUCTURE
     1 M1I         1 TEMP              0 ****  ****    0 ROOT
