@<TRIPOS>MOLECULE
M1I
   59    62     1     0     0
SMALL
abcg2


@<TRIPOS>ATOM
      1 C4           6.3780    -3.6020     3.7640 ca         1 M1I       0.014200
      2 C5           6.7230    -4.8480     3.2380 ca         1 M1I      -0.196000
      3 C6           6.8520    -5.0370     1.8660 ca         1 M1I       0.157100
      4 C7           6.6520    -3.9640     0.9800 ca         1 M1I      -0.111300
      5 C8           6.3370    -2.7270     1.5260 ca         1 M1I      -0.065000
      6 C15          4.9300    -5.7750    -0.8740 c6         1 M1I       0.178800
      7 C17          6.2480    -3.4200     5.2250 cc         1 M1I      -0.140200
      8 C20          6.1490    -2.9670     8.0190 c          1 M1I       0.550200
      9 C22          6.9700    -2.4370     5.8260 cd         1 M1I      -0.025400
     10 C28          7.3330    -7.3480     2.1560 c3         1 M1I       0.146900
     11 C1           7.5770    -3.1990    -1.2950 cx         1 M1I      -0.109400
     12 C11          4.4300    -3.4480    -1.0460 c6         1 M1I       0.178800
     13 C12          3.2610    -3.7700    -1.9590 c6         1 M1I       0.162300
     14 C14          3.7590    -6.0850    -1.7890 c6         1 M1I       0.162300
     15 C16          1.5720    -5.3890    -2.4730 c3         1 M1I       0.153100
     16 C18          5.4010    -4.2270     6.0490 cc         1 M1I       0.025800
     17 C19          5.3810    -4.0250     7.4050 cd         1 M1I      -0.215400
     18 C2           6.6930    -4.1270    -0.5130 cx         1 M1I       0.184500
     19 C25          4.5300    -4.8560     8.3190 c3         1 M1I      -0.035900
     20 C27          4.5080    -5.2680     5.4380 c3         1 M1I      -0.061900
     21 C3           7.9310    -4.6480    -1.1690 cx         1 M1I      -0.109400
     22 C9           6.1910    -2.5350     2.8930 ca         1 M1I      -0.148000
     23 N10          5.4590    -4.4590    -1.1740 n3         1 M1I      -0.713600
     24 N13          2.7230    -5.0810    -1.6580 n3         1 M1I      -0.716600
     25 N21          6.9250    -2.2080     7.1580 n          1 M1I      -0.265000
     26 O23          6.1470    -2.7050     9.2220 o          1 M1I      -0.565000
     27 O26          7.1810    -6.2220     1.3190 os         1 M1I      -0.339100
     28 H33          6.8960    -5.6670     3.9240 ha         1 M1I       0.121000
     29 H34          6.1940    -1.8880     0.8560 ha         1 M1I       0.116000
     30 H44          4.5930    -5.8610     0.1720 h1         1 M1I       0.040950
     31 H43          5.7100    -6.5210    -1.0300 h1         1 M1I       0.040950
     32 H48          7.6300    -1.7940     5.2600 h4         1 M1I       0.202000
     33 H49          7.0720    -0.3990     8.2190 h1         1 M1I       0.054367
     34 H50          8.4130    -1.5220     8.4760 h1         1 M1I       0.054367
     35 H51          8.2770    -0.6420     6.9480 h1         1 M1I       0.054367
     36 H58          7.5660    -8.1860     1.5040 h1         1 M1I       0.041033
     37 H59          8.1510    -7.2210     2.8710 h1         1 M1I       0.041033
     38 H60          6.4170    -7.5760     2.7080 h1         1 M1I       0.041033
     39 H30          8.1740    -2.4770    -0.7520 hc         1 M1I       0.075700
     40 H29          7.2030    -2.8450    -2.2480 hc         1 M1I       0.075700
     41 H37          4.8450    -2.4770    -1.3250 h1         1 M1I       0.040950
     42 H36          4.0580    -3.3580    -0.0130 h1         1 M1I       0.040950
     43 H39          3.5920    -3.6980    -3.0110 h1         1 M1I       0.034950
     44 H38          2.4800    -3.0190    -1.8160 h1         1 M1I       0.034950
     45 H41          3.3460    -7.0610    -1.5230 h1         1 M1I       0.034950
     46 H42          4.1230    -6.1590    -2.8290 h1         1 M1I       0.034950
     47 H47          1.1650    -6.3630    -2.1940 h1         1 M1I       0.029033
     48 H45          0.7900    -4.6440    -2.3170 h1         1 M1I       0.029033
     49 H46          1.7960    -5.4180    -3.5510 h1         1 M1I       0.029033
     50 H53          4.8830    -4.7970     9.3450 hc         1 M1I       0.046700
     51 H54          3.4890    -4.5220     8.3150 hc         1 M1I       0.046700
     52 H52          4.5320    -5.9050     8.0250 hc         1 M1I       0.046700
     53 H57          3.5500    -5.3160     5.9540 hc         1 M1I       0.050700
     54 H55          4.3110    -5.0670     4.3870 hc         1 M1I       0.050700
     55 H56          4.9580    -6.2610     5.4980 hc         1 M1I       0.050700
     56 H31          7.8010    -5.2840    -2.0360 hc         1 M1I       0.075700
     57 H32          8.7720    -4.9150    -0.5420 hc         1 M1I       0.075700
     58 H35          5.9160    -1.5600     3.2770 ha         1 M1I       0.116000
     59 C24          7.7150    -1.1320     7.7370 c3         1 M1I       0.077300
@<TRIPOS>BOND
     1     1     2 ar  
     2     1     7 1   
     3     1    22 ar  
     4     2     3 ar  
     5     2    28 1   
     6     3     4 ar  
     7     3    27 1   
     8     4     5 ar  
     9     4    18 1   
    10     5    22 ar  
    11     5    29 1   
    12     6    14 1   
    13     6    23 1   
    14     6    30 1   
    15     6    31 1   
    16     7     9 2   
    17     7    16 1   
    18     8    17 1   
    19     8    25 1   
    20     8    26 2   
    21     9    25 1   
    22     9    32 1   
    23    10    27 1   
    24    10    36 1   
    25    10    37 1   
    26    10    38 1   
    27    11    18 1   
    28    11    21 1   
    29    11    39 1   
    30    11    40 1   
    31    12    13 1   
    32    12    23 1   
    33    12    41 1   
    34    12    42 1   
    35    13    24 1   
    36    13    43 1   
    37    13    44 1   
    38    14    24 1   
    39    14    45 1   
    40    14    46 1   
    41    15    24 1   
    42    15    47 1   
    43    15    48 1   
    44    15    49 1   
    45    16    17 2   
    46    16    20 1   
    47    17    19 1   
    48    18    21 1   
    49    18    23 1   
    50    19    50 1   
    51    19    51 1   
    52    19    52 1   
    53    20    53 1   
    54    20    54 1   
    55    20    55 1   
    56    21    56 1   
    57    21    57 1   
    58    22    58 1   
    59    25    59 1   
    60    33    59 1   
    61    34    59 1   
    62    35    59 1   
@<TRIPOS>SUBSTRUCTURE
     1 M1I         1 TEMP              0 ****  ****    0 ROOT
