@<TRIPOS>MOLECULE
M1J
   52    55     1     0     0
SMALL
No Charge or Current Charge


@<TRIPOS>ATOM
      1 C10         -2.1200    -1.0460     0.5320 cp         1 M1J      -0.250500
      2 N12         -0.7080     0.9520     0.3450 nb         1 M1J      -0.337000
      3 C13          0.5210     1.4800     0.2050 ca         1 M1J       0.455900
      4 C15          1.9220     3.5580    -0.2480 c6         1 M1J       0.190800
      5 C21          1.4840    -0.5760     0.1370 ca         1 M1J       0.448900
      6 C24          5.1690    -1.7040     0.2850 c6         1 M1J       0.138600
      7 C26          3.7870    -3.6610     0.1930 c6         1 M1J       0.142600
      8 C02         -4.4260    -2.4500     0.9940 ca         1 M1J       0.635900
      9 C03         -4.5080    -1.2980     0.2170 ca         1 M1J      -0.228000
     10 C04         -3.3370    -0.5520    -0.0390 ca         1 M1J      -0.037300
     11 C05         -3.4060     0.6970    -0.9390 c3         1 M1J       0.225600
     12 C09         -2.1880    -2.2450     1.2900 ca         1 M1J       0.434900
     13 C11         -0.7820    -0.3890     0.3680 cp         1 M1J       0.303500
     14 C16          2.0270     5.0400     0.2200 c6         1 M1J       0.135600
     15 C18         -0.3490     5.2370     0.4760 c6         1 M1J       0.135600
     16 C19         -0.5880     3.7660     0.0230 c6         1 M1J       0.190800
     17 C23          4.0070    -0.7840    -0.1910 c6         1 M1J       0.188800
     18 C27          2.5440    -2.8550    -0.3060 c6         1 M1J       0.204500
     19 F06         -2.6960     0.5200    -2.0770 f          1 M1J      -0.122500
     20 F07         -4.6670     1.0090    -1.3210 f          1 M1J      -0.122500
     21 N01         -5.4700    -3.2260     1.2830 nv         1 M1J      -1.078900
     22 N08         -3.3230    -2.9380     1.5230 nb         1 M1J      -0.755000
     23 N14          0.6340     2.8940     0.1720 nh         1 M1J      -0.773300
     24 N20          1.6480     0.7570     0.1000 nb         1 M1J      -0.361000
     25 N22          2.6430    -1.3890     0.0350 nh         1 M1J      -0.767300
     26 N29          0.2950    -1.1890     0.2730 nb         1 M1J      -0.323000
     27 O17          0.8400     5.7820    -0.1370 os         1 M1J      -0.445000
     28 O25          5.0200    -3.0430    -0.2370 os         1 M1J      -0.442000
     29 H151         2.0160     3.5290    -1.3440 h1         1 M1J       0.067950
     30 H152         2.7930     3.0270     0.1640 h1         1 M1J       0.067950
     31 H242         6.1310    -1.2910    -0.0490 h1         1 M1J       0.053200
     32 H241         5.1820    -1.7460     1.3840 h1         1 M1J       0.053200
     33 H261         3.7760    -3.7130     1.2910 h1         1 M1J       0.054700
     34 H262         3.7460    -4.6900    -0.1910 h1         1 M1J       0.054700
     35 H031        -5.4720    -0.9990    -0.1810 ha         1 M1J       0.136000
     36 H051        -3.0030     1.5640    -0.4080 h2         1 M1J       0.089700
     37 H091        -1.2910    -2.6610     1.7480 h4         1 M1J       0.037100
     38 H162         2.1610     5.0760     1.3110 h1         1 M1J       0.054450
     39 H161         2.9030     5.5150    -0.2450 h1         1 M1J       0.054450
     40 H181        -1.2140     5.8560     0.2000 h1         1 M1J       0.054450
     41 H182        -0.2410     5.2760     1.5700 h1         1 M1J       0.054450
     42 H192        -1.4250     3.3770     0.6220 h1         1 M1J       0.067950
     43 H191        -0.9160     3.7710    -1.0260 h1         1 M1J       0.067950
     44 H232         4.1090     0.1690     0.3480 h1         1 M1J       0.065700
     45 H231         4.1450    -0.5640    -1.2600 h1         1 M1J       0.065700
     46 H271         1.6740    -3.3060     0.1960 h1         1 M1J       0.090700
     47 H011        -6.2590    -3.1880     0.6470 hn         1 M1J       0.494000
     48 H012        -5.2260    -4.1420     1.6380 hn         1 M1J       0.494000
     49 C28          2.3290    -3.0230    -1.8350 c3         1 M1J      -0.106100
     50 H281         2.2120    -4.0800    -2.1010 hc         1 M1J       0.046033
     51 H282         1.4260    -2.4980    -2.1690 hc         1 M1J       0.046033
     52 H283         3.1770    -2.6270    -2.4080 hc         1 M1J       0.046033
@<TRIPOS>BOND
     1     1    10 ar  
     2     1    12 ar  
     3     1    13 1   
     4     2     3 ar  
     5     2    13 ar  
     6     3    23 1   
     7     3    24 ar  
     8     4    14 1   
     9     4    23 1   
    10     4    29 1   
    11     4    30 1   
    12     5    24 ar  
    13     5    25 1   
    14     5    26 ar  
    15     6    17 1   
    16     6    28 1   
    17     6    31 1   
    18     6    32 1   
    19     7    18 1   
    20     7    28 1   
    21     7    33 1   
    22     7    34 1   
    23     8     9 ar  
    24     8    21 1   
    25     8    22 ar  
    26     9    10 ar  
    27     9    35 1   
    28    10    11 1   
    29    11    19 1   
    30    11    20 1   
    31    11    36 1   
    32    12    22 ar  
    33    12    37 1   
    34    13    26 ar  
    35    14    27 1   
    36    14    38 1   
    37    14    39 1   
    38    15    16 1   
    39    15    27 1   
    40    15    40 1   
    41    15    41 1   
    42    16    23 1   
    43    16    42 1   
    44    16    43 1   
    45    17    25 1   
    46    17    44 1   
    47    17    45 1   
    48    18    25 1   
    49    18    46 1   
    50    18    49 1   
    51    21    47 1   
    52    21    48 1   
    53    49    50 1   
    54    49    51 1   
    55    49    52 1   
@<TRIPOS>SUBSTRUCTURE
     1 M1J         1 TEMP              0 ****  ****    0 ROOT
