@<TRIPOS>MOLECULE
M1J
   52    55     1     0     0
SMALL
bcc


@<TRIPOS>ATOM
      1 C10         -2.0310    -1.0280     0.3420 cp         1 M1J      -0.315800
      2 N12         -0.7030     0.9500     0.0800 nb         1 M1J      -0.863000
      3 C13          0.5110     1.4870    -0.1140 ca         1 M1J       0.981900
      4 C15          1.8400     3.5180    -0.4800 c6         1 M1J       0.190800
      5 C21          1.4970    -0.5390    -0.1280 ca         1 M1J       0.974900
      6 C24          4.9930    -1.4210     0.2680 c6         1 M1J       0.115400
      7 C26          3.7060    -3.3180     0.5730 c6         1 M1J       0.119400
      8 C02         -4.3250    -2.4150     0.9690 ca         1 M1J       0.701200
      9 C03         -4.4250    -1.1890     0.2780 ca         1 M1J      -0.311300
     10 C04         -3.2830    -0.4950    -0.0340 ca         1 M1J      -0.037300
     11 C05         -3.3930     0.7840    -0.8220 c3         1 M1J       0.468200
     12 C09         -2.0550    -2.2560     0.9930 ca         1 M1J       0.500200
     13 C11         -0.7300    -0.3720     0.1290 cp         1 M1J       0.829500
     14 C16          2.0190     4.6820     0.4770 c6         1 M1J       0.112400
     15 C18         -0.2760     4.8660     0.8020 c6         1 M1J       0.112400
     16 C19         -0.5550     3.7040    -0.1370 c6         1 M1J       0.190800
     17 C23          3.9020    -0.7340    -0.5300 c6         1 M1J       0.188800
     18 C27          2.5320    -2.7570    -0.2190 c6         1 M1J       0.204500
     19 F06         -2.7170     0.6470    -1.9970 f          1 M1J      -0.243800
     20 F07         -4.6880     1.0320    -1.1570 f          1 M1J      -0.243800
     21 N01         -5.4300    -3.0960     1.3220 nv         1 M1J      -0.968500
     22 N08         -3.1460    -2.9350     1.3070 nb         1 M1J      -0.755000
     23 N14          0.5990     2.8280    -0.1840 nh         1 M1J      -0.773300
     24 N20          1.6320     0.7810    -0.2330 nb         1 M1J      -0.887000
     25 N22          2.6080    -1.2990    -0.1900 nh         1 M1J      -0.767300
     26 N29          0.3240    -1.1670     0.0320 nb         1 M1J      -0.849000
     27 O17          0.9070     5.5500     0.4560 os         1 M1J      -0.398600
     28 O25          4.9440    -2.8220     0.1200 os         1 M1J      -0.395600
     29 H151         1.8170     3.8830    -1.5130 h1         1 M1J       0.067950
     30 H152         2.6770     2.8310    -0.3870 h1         1 M1J       0.067950
     31 H242         5.9700    -1.0850    -0.0820 h1         1 M1J       0.053200
     32 H241         4.8980    -1.1450     1.3270 h1         1 M1J       0.053200
     33 H261         3.5670    -3.0810     1.6380 h1         1 M1J       0.054700
     34 H262         3.7290    -4.4040     0.4730 h1         1 M1J       0.054700
     35 H031        -5.4040    -0.8220     0.0040 ha         1 M1J       0.154000
     36 H051        -3.0090     1.6520    -0.2920 h2         1 M1J       0.089700
     37 H091        -1.1160    -2.7090     1.2860 h4         1 M1J       0.037100
     38 H162         2.1870     4.2960     1.4920 h1         1 M1J       0.054450
     39 H161         2.8960     5.2640     0.1900 h1         1 M1J       0.054450
     40 H181        -1.0970     5.5820     0.7520 h1         1 M1J       0.054450
     41 H182        -0.2160     4.4890     1.8330 h1         1 M1J       0.054450
     42 H192        -1.4250     3.1580     0.2170 h1         1 M1J       0.067950
     43 H191        -0.7770     4.0780    -1.1430 h1         1 M1J       0.067950
     44 H232         3.9050     0.3290    -0.3070 h1         1 M1J       0.065700
     45 H231         4.0930    -0.8430    -1.6040 h1         1 M1J       0.065700
     46 H271         1.6220    -3.0540     0.2990 h1         1 M1J       0.090700
     47 H011        -6.3320    -2.8330     0.9660 hn         1 M1J       0.438800
     48 H012        -5.3360    -4.0260     1.6920 hn         1 M1J       0.438800
     49 C28          2.4690    -3.2850    -1.6490 c3         1 M1J      -0.106100
     50 H281         2.3520    -4.3700    -1.6450 hc         1 M1J       0.046033
     51 H282         1.6120    -2.8610    -2.1740 hc         1 M1J       0.046033
     52 H283         3.3680    -3.0490    -2.2190 hc         1 M1J       0.046033
@<TRIPOS>BOND
     1     1    10 ar  
     2     1    12 ar  
     3     1    13 1   
     4     2     3 ar  
     5     2    13 ar  
     6     3    23 1   
     7     3    24 ar  
     8     4    14 1   
     9     4    23 1   
    10     4    29 1   
    11     4    30 1   
    12     5    24 ar  
    13     5    25 1   
    14     5    26 ar  
    15     6    17 1   
    16     6    28 1   
    17     6    31 1   
    18     6    32 1   
    19     7    18 1   
    20     7    28 1   
    21     7    33 1   
    22     7    34 1   
    23     8     9 ar  
    24     8    21 1   
    25     8    22 ar  
    26     9    10 ar  
    27     9    35 1   
    28    10    11 1   
    29    11    19 1   
    30    11    20 1   
    31    11    36 1   
    32    12    22 ar  
    33    12    37 1   
    34    13    26 ar  
    35    14    27 1   
    36    14    38 1   
    37    14    39 1   
    38    15    16 1   
    39    15    27 1   
    40    15    40 1   
    41    15    41 1   
    42    16    23 1   
    43    16    42 1   
    44    16    43 1   
    45    17    25 1   
    46    17    44 1   
    47    17    45 1   
    48    18    25 1   
    49    18    46 1   
    50    18    49 1   
    51    21    47 1   
    52    21    48 1   
    53    49    50 1   
    54    49    51 1   
    55    49    52 1   
@<TRIPOS>SUBSTRUCTURE
     1 M1J         1 TEMP              0 ****  ****    0 ROOT
