@<TRIPOS>MOLECULE
M1L
   65    68     1     0     0
SMALL
abcg2


@<TRIPOS>ATOM
      1 C1           3.9150    30.6000    25.6670 c6         1 M1L      -0.031100
      2 C2           5.8200    28.9840    22.7680 ca         1 M1L      -0.012000
      3 C3           6.3250    30.1110    22.1390 ca         1 M1L      -0.160900
      4 C4           6.0600    31.3810    22.6770 ca         1 M1L       0.086000
      5 C5           5.2970    31.5590    23.8170 ca         1 M1L      -0.129300
      6 C6           4.7890    30.4110    24.4510 ca         1 M1L      -0.015300
      7 C7           5.0610    29.1270    23.9340 ca         1 M1L      -0.099000
      8 C8           3.3460    32.0070    25.7560 c6         1 M1L       0.165800
      9 N1           4.4230    32.9830    25.6380 n3         1 M1L      -0.714600
     10 C10          4.9890    32.9530    24.2990 c6         1 M1L       0.219100
     11 N2           6.6650    32.3610    21.8790 ns         1 M1L      -0.427500
     12 C11          7.3420    31.8140    20.8190 c          1 M1L       0.495700
     13 O1           7.9680    32.4260    19.9700 o          1 M1L      -0.508000
     14 C12          7.1300    30.3240    20.9470 cc         1 M1L       0.291900
     15 N3           7.6250    29.5380    20.0630 n2         1 M1L      -0.151700
     16 C13          3.9920    34.3280    25.9830 c3         1 M1L       0.153100
     17 C14          4.3860    26.4030    26.4850 cc         1 M1L      -0.101000
     18 C15          4.8190    27.5920    25.9140 cd         1 M1L      -0.191500
     19 C16          4.5520    27.8890    24.5760 cd         1 M1L       0.026000
     20 C17          3.8240    26.9600    23.8240 cd         1 M1L      -0.191500
     21 C18          3.3620    25.7810    24.3900 cc         1 M1L      -0.101000
     22 C19          3.6560    25.5020    25.7190 cc         1 M1L      -0.474000
     23 S1           3.0400    24.0080    26.5040 s6         1 M1L       1.112400
     24 N4           3.0640    22.8890    25.2040 n3         1 M1L      -0.541000
     25 O2           1.3330    24.4430    25.9870 oh         1 M1L      -0.760700
     26 O3           4.7020    23.5980    27.1550 oh         1 M1L      -0.760700
     27 C20          2.3030    21.6810    25.5410 c3         1 M1L       0.018400
     28 C21          4.3570    22.5750    24.6070 c3         1 M1L       0.018400
     29 O4           7.3520    28.2310    20.3200 os         1 M1L      -0.303000
     30 C22          7.8160    27.3780    19.2530 c3         1 M1L       0.031300
     31 C23          7.7520    25.9590    19.8030 c3         1 M1L      -0.102400
     32 C24          8.6630    25.7080    20.9970 c3         1 M1L       0.152600
     33 O5          10.0470    25.9170    20.6990 oh         1 M1L      -0.670000
     34 C25          6.9610    27.5140    17.9690 c          1 M1L       0.706000
     35 O6           7.5250    27.0980    16.9270 o          1 M1L      -0.714000
     36 O7           5.8060    27.9810    18.0780 o          1 M1L      -0.714000
     37 H11          3.1050    29.8690    25.6590 hc         1 M1L       0.057200
     38 H12          4.4990    30.4090    26.5710 hc         1 M1L       0.057200
     39 H2           6.0230    28.0010    22.3730 ha         1 M1L       0.147000
     40 H81          2.8570    32.1450    26.7210 h1         1 M1L       0.032200
     41 H82          2.5800    32.1620    24.9750 h1         1 M1L       0.032200
     42 H101         4.3020    33.4270    23.5710 h1         1 M1L       0.034200
     43 H102         5.9020    33.5560    24.2960 h1         1 M1L       0.034200
     44 HN2          6.6360    33.3550    22.0480 hn         1 M1L       0.329500
     45 H131         3.1990    34.7000    25.3130 h1         1 M1L       0.028367
     46 H132         4.8380    35.0140    25.9190 h1         1 M1L       0.028367
     47 H133         3.6110    34.3400    27.0060 h1         1 M1L       0.028367
     48 H17          3.6050    27.1700    22.7850 ha         1 M1L       0.196500
     49 H18          2.7780    25.0850    23.8070 ha         1 M1L       0.203500
     50 HO2          0.8810    24.5380    26.8370 ho         1 M1L       0.415000
     51 HO3          5.4320    23.7750    26.5450 ho         1 M1L       0.415000
     52 H201         1.3330    21.9600    25.9450 h1         1 M1L       0.048867
     53 H202         2.8310    21.0410    26.2580 h1         1 M1L       0.048867
     54 H203         2.1490    21.1190    24.6200 h1         1 M1L       0.048867
     55 H211         4.9850    21.9450    25.2450 h1         1 M1L       0.048867
     56 H212         4.8970    23.4860    24.3540 h1         1 M1L       0.048867
     57 H213         4.1500    22.0390    23.6800 h1         1 M1L       0.048867
     58 H22          8.8450    27.6560    19.0260 h1         1 M1L       0.059700
     59 H231         8.0140    25.2740    18.9940 hc         1 M1L       0.058200
     60 H232         6.7210    25.7360    20.0940 hc         1 M1L       0.058200
     61 H241         8.5030    24.6890    21.3640 h1         1 M1L       0.029200
     62 H242         8.4290    26.3980    21.8080 h1         1 M1L       0.029200
     63 HO5         10.3040    25.2900    20.0110 ho         1 M1L       0.432000
     64 H14          4.6240    26.1770    27.5150 ha         1 M1L       0.203500
     65 H15          5.3940    28.2840    26.5150 ha         1 M1L       0.196500
@<TRIPOS>BOND
     1     1     6 1   
     2     1     8 1   
     3     1    37 1   
     4     1    38 1   
     5     2     3 ar  
     6     2     7 ar  
     7     2    39 1   
     8     3     4 ar  
     9     3    14 1   
    10     4     5 ar  
    11     4    11 2   
    12     5     6 ar  
    13     5    10 1   
    14     6     7 ar  
    15     7    19 2   
    16     8     9 1   
    17     8    40 1   
    18     8    41 1   
    19     9    10 1   
    20     9    16 1   
    21    10    42 1   
    22    10    43 1   
    23    11    12 1   
    24    11    44 1   
    25    12    13 2   
    26    12    14 1   
    27    14    15 2   
    28    15    29 1   
    29    16    45 1   
    30    16    46 1   
    31    16    47 1   
    32    17    18 2   
    33    17    22 1   
    34    17    64 1   
    35    18    19 1   
    36    18    65 1   
    37    19    20 1   
    38    20    21 2   
    39    20    48 1   
    40    21    22 1   
    41    21    49 1   
    42    22    23 2   
    43    23    24 2   
    44    23    25 1   
    45    23    26 1   
    46    24    27 1   
    47    24    28 1   
    48    25    50 1   
    49    26    51 1   
    50    27    52 1   
    51    27    53 1   
    52    27    54 1   
    53    28    55 1   
    54    28    56 1   
    55    28    57 1   
    56    29    30 1   
    57    30    31 1   
    58    30    34 1   
    59    30    58 1   
    60    31    32 1   
    61    31    59 1   
    62    31    60 1   
    63    32    33 1   
    64    32    61 1   
    65    32    62 1   
    66    33    63 1   
    67    34    35 1   
    68    34    36 1   
@<TRIPOS>SUBSTRUCTURE
     1 M1L         1 TEMP              0 ****  ****    0 ROOT
