@<TRIPOS>MOLECULE
M1L
   65    68     1     0     0
SMALL
No Charge or Current Charge


@<TRIPOS>ATOM
      1 C1           3.9650    30.5840    25.6170 c6         1 M1L      -0.031100
      2 C2           5.7390    29.1290    22.4940 ca         1 M1L      -0.012000
      3 C3           6.2360    30.3120    21.9210 ca         1 M1L      -0.160900
      4 C4           6.0110    31.5330    22.5350 ca         1 M1L       0.086000
      5 C5           5.2900    31.6620    23.7270 ca         1 M1L      -0.129300
      6 C6           4.7710    30.4800    24.3130 ca         1 M1L      -0.015300
      7 C7           5.0080    29.2150    23.7000 ca         1 M1L      -0.099000
      8 C8           3.4930    32.0200    25.9360 c6         1 M1L       0.165800
      9 N1           4.5950    32.9960    25.7650 n3         1 M1L      -0.714600
     10 C10          5.0430    33.0400    24.3490 c6         1 M1L       0.219100
     11 N2           6.6160    32.5130    21.7460 ns         1 M1L      -0.427500
     12 C11          7.2500    32.0370    20.6260 c          1 M1L       0.495700
     13 O1           7.8470    32.7130    19.7960 o          1 M1L      -0.508000
     14 C12          7.0220    30.5620    20.6990 cc         1 M1L       0.291900
     15 N3           7.4820    29.7420    19.7940 n2         1 M1L      -0.151700
     16 C13          4.2600    34.3370    26.2880 c3         1 M1L       0.153100
     17 C14          4.5680    26.3070    26.0690 cc         1 M1L      -0.101000
     18 C15          5.0510    27.4780    25.5250 cd         1 M1L      -0.191500
     19 C16          4.4990    27.9720    24.2930 cd         1 M1L       0.026000
     20 C17          3.4570    27.2380    23.6310 cd         1 M1L      -0.191500
     21 C18          2.9850    26.0670    24.1880 cc         1 M1L      -0.101000
     22 C19          3.5210    25.5610    25.4230 cc         1 M1L      -0.474000
     23 S1           2.8950    24.0180    26.1440 s6         1 M1L       1.112400
     24 N4           3.7120    22.5400    25.7710 n3         1 M1L      -0.541000
     25 O2           1.3360    23.7040    25.8770 oh         1 M1L      -0.760700
     26 O3           2.9030    24.0180    27.7550 oh         1 M1L      -0.760700
     27 C20          3.0050    21.5560    24.9240 c3         1 M1L       0.018400
     28 C21          4.6140    21.9440    26.7800 c3         1 M1L       0.018400
     29 O4           7.1840    28.3750    19.9710 os         1 M1L      -0.303000
     30 C22          7.7760    27.5770    18.9140 c3         1 M1L       0.031300
     31 C23          7.7360    26.1020    19.3960 c3         1 M1L      -0.102400
     32 C24          8.5770    25.8160    20.6600 c3         1 M1L       0.152600
     33 O5           9.9730    25.9800    20.3780 oh         1 M1L      -0.670000
     34 C25          7.0580    27.7370    17.5290 c          1 M1L       0.706000
     35 O6           7.6640    27.3670    16.5300 o          1 M1L      -0.714000
     36 O7           5.9510    28.2600    17.4710 o          1 M1L      -0.714000
     37 H11          3.0890    29.9230    25.5800 hc         1 M1L       0.057200
     38 H12          4.5880    30.2270    26.4470 hc         1 M1L       0.057200
     39 H2           5.9080    28.1590    22.0360 ha         1 M1L       0.147000
     40 H81          3.1110    32.0420    26.9680 h1         1 M1L       0.032200
     41 H82          2.6530    32.2790    25.2740 h1         1 M1L       0.032200
     42 H101         4.2880    33.5540    23.7340 h1         1 M1L       0.034200
     43 H102         5.9680    33.6310    24.2750 h1         1 M1L       0.034200
     44 HN2          6.5970    33.5000    21.9780 hn         1 M1L       0.329500
     45 H131         3.4100    34.7700    25.7430 h1         1 M1L       0.028367
     46 H132         5.1160    35.0180    26.1880 h1         1 M1L       0.028367
     47 H133         3.9940    34.2830    27.3520 h1         1 M1L       0.028367
     48 H17          3.0410    27.6060    22.6970 ha         1 M1L       0.196500
     49 H18          2.1910    25.5110    23.6880 ha         1 M1L       0.203500
     50 HO2          1.0050    23.6720    26.7920 ho         1 M1L       0.415000
     51 HO3          3.1180    23.0880    27.9430 ho         1 M1L       0.415000
     52 H201         2.5800    22.0400    24.0350 h1         1 M1L       0.048867
     53 H202         2.1910    21.0750    25.4820 h1         1 M1L       0.048867
     54 H203         3.6940    20.7730    24.5810 h1         1 M1L       0.048867
     55 H211         4.0450    21.4730    27.5920 h1         1 M1L       0.048867
     56 H212         5.2800    22.7050    27.2100 h1         1 M1L       0.048867
     57 H213         5.2470    21.1720    26.3220 h1         1 M1L       0.048867
     58 H22          8.8260    27.8630    18.7640 h1         1 M1L       0.059700
     59 H231         8.0770    25.4460    18.5860 hc         1 M1L       0.058200
     60 H232         6.6930    25.8260    19.5970 hc         1 M1L       0.058200
     61 H241         8.3800    24.7880    20.9920 h1         1 M1L       0.029200
     62 H242         8.2670    26.4890    21.4700 h1         1 M1L       0.029200
     63 HO5         10.2160    25.2900    19.7220 ho         1 M1L       0.432000
     64 H14          4.9830    25.9330    27.0060 ha         1 M1L       0.203500
     65 H15          5.8460    28.0260    26.0230 ha         1 M1L       0.196500
@<TRIPOS>BOND
     1     1     6 1   
     2     1     8 1   
     3     1    37 1   
     4     1    38 1   
     5     2     3 ar  
     6     2     7 ar  
     7     2    39 1   
     8     3     4 ar  
     9     3    14 1   
    10     4     5 ar  
    11     4    11 2   
    12     5     6 ar  
    13     5    10 1   
    14     6     7 ar  
    15     7    19 2   
    16     8     9 1   
    17     8    40 1   
    18     8    41 1   
    19     9    10 1   
    20     9    16 1   
    21    10    42 1   
    22    10    43 1   
    23    11    12 1   
    24    11    44 1   
    25    12    13 2   
    26    12    14 1   
    27    14    15 2   
    28    15    29 1   
    29    16    45 1   
    30    16    46 1   
    31    16    47 1   
    32    17    18 2   
    33    17    22 1   
    34    17    64 1   
    35    18    19 1   
    36    18    65 1   
    37    19    20 1   
    38    20    21 2   
    39    20    48 1   
    40    21    22 1   
    41    21    49 1   
    42    22    23 2   
    43    23    24 2   
    44    23    25 1   
    45    23    26 1   
    46    24    27 1   
    47    24    28 1   
    48    25    50 1   
    49    26    51 1   
    50    27    52 1   
    51    27    53 1   
    52    27    54 1   
    53    28    55 1   
    54    28    56 1   
    55    28    57 1   
    56    29    30 1   
    57    30    31 1   
    58    30    34 1   
    59    30    58 1   
    60    31    32 1   
    61    31    59 1   
    62    31    60 1   
    63    32    33 1   
    64    32    61 1   
    65    32    62 1   
    66    33    63 1   
    67    34    35 1   
    68    34    36 1   
@<TRIPOS>SUBSTRUCTURE
     1 M1L         1 TEMP              0 ****  ****    0 ROOT
