@<TRIPOS>MOLECULE
M1O
   52    55     1     0     0
SMALL
No Charge or Current Charge


@<TRIPOS>ATOM
      1 N11         -9.6740    17.6770    50.4410 nb         1 M1O      -0.204000
      2 C12        -10.4520    18.0060    49.3900 ca         1 M1O       0.086000
      3 C13        -10.5150    17.1660    48.2520 ca         1 M1O      -0.197000
      4 C14        -11.3300    17.5290    47.1560 ca         1 M1O      -0.072000
      5 C15        -12.0790    18.7180    47.1960 ca         1 M1O       0.075100
      6 C17        -12.2620    19.3350    44.8490 c3         1 M1O       0.128600
      7 C18        -13.1600    18.7600    43.7260 c3         1 M1O       0.157600
      8 O22        -10.8890    14.8750    41.9310 os         1 M1O      -0.440000
      9 C02         -8.5980    11.0650    46.5540 ca         1 M1O       0.165000
     10 C03         -8.8070    11.5220    47.8660 ca         1 M1O       0.088000
     11 C05         -9.1940    12.8520    48.0910 ca         1 M1O      -0.088000
     12 C06         -9.3650    13.7430    47.0110 ca         1 M1O       0.292000
     13 C08         -9.7550    15.9720    48.2770 ca         1 M1O       0.410900
     14 C10         -8.9740    16.5290    50.3570 ca         1 M1O       0.172900
     15 C20        -11.7760    16.8470    43.0730 c3         1 M1O       0.119600
     16 C21        -11.8690    15.3120    42.9040 c3         1 M1O       0.144600
     17 C23         -9.4890    14.9360    42.3060 c3         1 M1O       0.147600
     18 C24         -9.1330    13.7660    43.2560 c3         1 M1O       0.121600
     19 C26         -9.1810    13.2690    45.6830 ca         1 M1O       0.075100
     20 C27         -8.7880    11.9280    45.4650 ca         1 M1O      -0.143000
     21 C28        -12.0390    19.5480    48.3360 ca         1 M1O       0.161100
     22 C30        -12.8180    21.6120    49.4600 c3         1 M1O       0.141900
     23 C31        -11.2150    19.1870    49.4240 ca         1 M1O      -0.203000
     24 N07         -9.7510    15.0820    47.2020 nu         1 M1O      -0.928900
     25 N09         -8.9760    15.6630    49.3270 nb         1 M1O      -0.272000
     26 O16        -12.8730    19.0480    46.1210 os         1 M1O      -0.339100
     27 O19        -13.0150    17.3200    43.6440 os         1 M1O      -0.444000
     28 O25         -9.4020    14.1430    44.6230 os         1 M1O      -0.375100
     29 O29        -12.8010    20.7050    48.3430 os         1 M1O      -0.320100
     30 Cl04        -8.5970    10.4380    49.2410 cl         1 M1O      -0.162000
     31 H1         -11.4100    16.8960    46.2780 ha         1 M1O       0.122000
     32 H2         -11.2500    18.9180    44.7830 h1         1 M1O       0.038200
     33 H3         -12.1750    20.4220    44.7200 h1         1 M1O       0.038200
     34 H4         -12.8890    19.2290    42.7710 h1         1 M1O       0.059200
     35 H5         -14.2040    19.0280    43.9360 h1         1 M1O       0.059200
     36 H6          -9.3730    13.1740    49.1090 ha         1 M1O       0.166000
     37 H7          -8.3460    16.2760    51.2090 h5         1 M1O       0.049100
     38 H8         -10.9220    17.0900    43.7170 h1         1 M1O       0.029700
     39 H9         -11.6140    17.3060    42.0890 h1         1 M1O       0.029700
     40 H10        -12.8740    15.0620    42.5420 h1         1 M1O       0.060200
     41 H11        -11.7350    14.8150    43.8730 h1         1 M1O       0.060200
     42 H12         -8.8730    14.8290    41.4030 h1         1 M1O       0.057200
     43 H13         -9.2220    15.8960    42.7650 h1         1 M1O       0.057200
     44 H14         -9.7130    12.8800    42.9660 h1         1 M1O       0.045700
     45 H15         -8.0670    13.5320    43.1370 h1         1 M1O       0.045700
     46 H16         -8.6300    11.5330    44.4660 ha         1 M1O       0.146000
     47 H17        -13.4890    22.4550    49.2530 h1         1 M1O       0.047700
     48 H18        -13.1760    21.1080    50.3670 h1         1 M1O       0.047700
     49 H19        -11.8160    22.0150    49.6510 h1         1 M1O       0.047700
     50 H20        -11.1560    19.8110    50.3110 ha         1 M1O       0.143000
     51 H21        -10.0110    15.5210    46.3210 hn         1 M1O       0.510000
     52 F01         -8.2250     9.7840    46.3270 f          1 M1O      -0.158000
@<TRIPOS>BOND
     1     1     2 ar  
     2     1    14 ar  
     3     2     3 ar  
     4     2    23 ar  
     5     3     4 ar  
     6     3    13 ar  
     7     4     5 ar  
     8     4    31 1   
     9     5    21 ar  
    10     5    26 1   
    11     6     7 1   
    12     6    26 1   
    13     6    32 1   
    14     6    33 1   
    15     7    27 1   
    16     7    34 1   
    17     7    35 1   
    18     8    16 1   
    19     8    17 1   
    20     9    10 ar  
    21     9    20 ar  
    22     9    52 1   
    23    10    11 ar  
    24    10    30 1   
    25    11    12 ar  
    26    11    36 1   
    27    12    19 ar  
    28    12    24 1   
    29    13    24 1   
    30    13    25 ar  
    31    14    25 ar  
    32    14    37 1   
    33    15    16 1   
    34    15    27 1   
    35    15    38 1   
    36    15    39 1   
    37    16    40 1   
    38    16    41 1   
    39    17    18 1   
    40    17    42 1   
    41    17    43 1   
    42    18    28 1   
    43    18    44 1   
    44    18    45 1   
    45    19    20 ar  
    46    19    28 1   
    47    20    46 1   
    48    21    23 ar  
    49    21    29 1   
    50    22    29 1   
    51    22    47 1   
    52    22    48 1   
    53    22    49 1   
    54    23    50 1   
    55    24    51 1   
@<TRIPOS>SUBSTRUCTURE
     1 M1O         1 TEMP              0 ****  ****    0 ROOT
