@<TRIPOS>MOLECULE
M1O
   52    55     1     0     0
SMALL
bcc


@<TRIPOS>ATOM
      1 N11         -9.8800    17.4240    50.4190 nb         1 M1O      -0.730000
      2 C12        -10.5360    17.7500    49.2730 ca         1 M1O       0.479600
      3 C13        -10.5020    16.9160    48.1390 ca         1 M1O      -0.327600
      4 C14        -11.2690    17.2640    47.0090 ca         1 M1O      -0.090000
      5 C15        -12.0180    18.4060    46.9970 ca         1 M1O       0.075100
      6 C17        -12.1830    19.3910    44.8580 c3         1 M1O       0.105400
      7 C18        -13.0070    19.1580    43.6100 c3         1 M1O       0.134400
      8 O22        -10.9700    15.1110    42.1250 os         1 M1O      -0.393600
      9 C02         -8.0350    11.0740    46.6910 ca         1 M1O       0.129900
     10 C03         -8.3870    11.4960    47.9590 ca         1 M1O      -0.003600
     11 C05         -8.8720    12.7780    48.1610 ca         1 M1O      -0.106000
     12 C06         -9.0110    13.6520    47.0850 ca         1 M1O       0.153600
     13 C08         -9.7050    15.7330    48.2610 ca         1 M1O       0.739200
     14 C10         -9.2450    16.2880    50.4120 ca         1 M1O       0.698900
     15 C20        -11.9860    17.2640    42.6130 c3         1 M1O       0.096400
     16 C21        -12.0810    15.7470    42.7190 c3         1 M1O       0.121400
     17 C23         -9.8190    15.0830    42.9350 c3         1 M1O       0.124400
     18 C24         -9.8310    13.8850    43.8740 c3         1 M1O       0.098400
     19 C26         -8.6380    13.2070    45.8050 ca         1 M1O       0.075100
     20 C27         -8.1610    11.9220    45.6110 ca         1 M1O      -0.161000
     21 C28        -12.0090    19.2810    48.1220 ca         1 M1O       0.161100
     22 C30        -12.8070    21.2960    49.0660 c3         1 M1O       0.118700
     23 C31        -11.2840    18.9440    49.2410 ca         1 M1O      -0.286300
     24 N07         -9.5520    14.9300    47.1780 nu         1 M1O      -0.735300
     25 N09         -9.1200    15.4220    49.3960 nb         1 M1O      -0.798000
     26 O16        -12.8100    18.7080    45.9410 os         1 M1O      -0.315900
     27 O19        -13.1150    17.8000    43.2620 os         1 M1O      -0.397600
     28 O25         -8.7320    14.0760    44.7680 os         1 M1O      -0.351900
     29 O29        -12.7510    20.3800    47.9870 os         1 M1O      -0.296900
     30 CL04        -8.2200    10.4120    49.2890 cl         1 M1O      -0.070400
     31 H1         -11.3250    16.6250    46.1350 ha         1 M1O       0.140000
     32 H2         -11.1570    19.0310    44.7280 h1         1 M1O       0.038200
     33 H3         -12.1310    20.4670    45.0550 h1         1 M1O       0.038200
     34 H4         -12.5750    19.7570    42.7980 h1         1 M1O       0.059200
     35 H5         -14.0240    19.5240    43.7700 h1         1 M1O       0.059200
     36 H6          -9.1450    13.0910    49.1560 ha         1 M1O       0.184000
     37 H7          -8.7410    16.0010    51.3290 h5         1 M1O       0.049100
     38 H8         -11.0530    17.6090    43.0750 h1         1 M1O       0.029700
     39 H9         -11.9540    17.5730    41.5600 h1         1 M1O       0.029700
     40 H10        -12.9690    15.3920    42.1930 h1         1 M1O       0.060200
     41 H11        -12.1970    15.4680    43.7740 h1         1 M1O       0.060200
     42 H12         -8.9520    15.0280    42.2730 h1         1 M1O       0.057200
     43 H13         -9.7140    15.9980    43.5310 h1         1 M1O       0.057200
     44 H14        -10.7700    13.8390    44.4370 h1         1 M1O       0.045700
     45 H15         -9.7220    12.9470    43.3200 h1         1 M1O       0.045700
     46 H16         -7.8700    11.5900    44.6220 ha         1 M1O       0.164000
     47 H17        -13.4580    22.1060    48.7470 h1         1 M1O       0.047700
     48 H18        -13.2260    20.8350    49.9640 h1         1 M1O       0.047700
     49 H19        -11.8210    21.7030    49.3010 h1         1 M1O       0.047700
     50 H20        -11.2700    19.5650    50.1260 ha         1 M1O       0.161000
     51 H21         -9.7710    15.3480    46.2880 hn         1 M1O       0.454800
     52 F01         -7.5640     9.8370    46.5140 f          1 M1O      -0.122900
@<TRIPOS>BOND
     1     1     2 ar  
     2     1    14 ar  
     3     2     3 ar  
     4     2    23 ar  
     5     3     4 ar  
     6     3    13 ar  
     7     4     5 ar  
     8     4    31 1   
     9     5    21 ar  
    10     5    26 1   
    11     6     7 1   
    12     6    26 1   
    13     6    32 1   
    14     6    33 1   
    15     7    27 1   
    16     7    34 1   
    17     7    35 1   
    18     8    16 1   
    19     8    17 1   
    20     9    10 ar  
    21     9    20 ar  
    22     9    52 1   
    23    10    11 ar  
    24    10    30 1   
    25    11    12 ar  
    26    11    36 1   
    27    12    19 ar  
    28    12    24 1   
    29    13    24 1   
    30    13    25 ar  
    31    14    25 ar  
    32    14    37 1   
    33    15    16 1   
    34    15    27 1   
    35    15    38 1   
    36    15    39 1   
    37    16    40 1   
    38    16    41 1   
    39    17    18 1   
    40    17    42 1   
    41    17    43 1   
    42    18    28 1   
    43    18    44 1   
    44    18    45 1   
    45    19    20 ar  
    46    19    28 1   
    47    20    46 1   
    48    21    23 ar  
    49    21    29 1   
    50    22    29 1   
    51    22    47 1   
    52    22    48 1   
    53    22    49 1   
    54    23    50 1   
    55    24    51 1   
@<TRIPOS>SUBSTRUCTURE
     1 M1O         1 TEMP              0 ****  ****    0 ROOT
