@<TRIPOS>MOLECULE
M1Q
   22    23     1     0     0
SMALL
No Charge or Current Charge


@<TRIPOS>ATOM
      1 CAC          2.6810     1.0780    -0.3080 c6         1 M1Q      -0.074400
      2 CAD          2.7830    -0.4690    -0.4250 c6         1 M1Q      -0.082400
      3 CAE          1.6570     1.4990     0.7820 c6         1 M1Q      -0.135700
      4 CAF          1.3860    -1.1320    -0.5770 c6         1 M1Q      -0.055400
      5 CAI          0.3330     0.7970     0.5480 c2         1 M1Q       0.511300
      6 CAJ          0.4630    -0.7020     0.6000 c6         1 M1Q      -0.263000
      7 CAK         -1.7570     0.7200    -0.5490 c          1 M1Q       0.704400
      8 CAL         -0.9230    -1.2960     0.5350 c          1 M1Q       0.582000
      9 NAG         -0.6610     1.4050    -0.0250 ne         1 M1Q      -0.631100
     10 NAH         -1.8080    -0.5940    -0.2060 ns         1 M1Q      -0.494500
     11 OAA         -2.6300     1.2330    -1.2220 o          1 M1Q      -0.479000
     12 OAB         -1.2890    -2.2170     1.2450 o          1 M1Q      -0.513000
     13 H1           3.6690     1.5050    -0.0850 hc         1 M1Q       0.054200
     14 H2           2.3740     1.4950    -1.2770 hc         1 M1Q       0.054200
     15 H3           3.4190    -0.7360    -1.2800 hc         1 M1Q       0.050700
     16 H4           3.2830    -0.8700     0.4680 hc         1 M1Q       0.050700
     17 H5           2.0360     1.2420     1.7800 hc         1 M1Q       0.074200
     18 H6           1.5170     2.5880     0.7700 hc         1 M1Q       0.074200
     19 H7           0.9400    -0.8480    -1.5420 hc         1 M1Q       0.063200
     20 H8           1.4950    -2.2260    -0.5930 hc         1 M1Q       0.063200
     21 H9           0.9100    -1.0200     1.5510 hc         1 M1Q       0.104700
     22 H10         -2.6880    -1.0490    -0.3920 hn         1 M1Q       0.340500
@<TRIPOS>BOND
     1     1     2 1   
     2     1     3 1   
     3     1    13 1   
     4     1    14 1   
     5     2     4 1   
     6     2    15 1   
     7     2    16 1   
     8     3     5 1   
     9     3    17 1   
    10     3    18 1   
    11     4     6 1   
    12     4    19 1   
    13     4    20 1   
    14     5     6 1   
    15     5     9 2   
    16     6     8 1   
    17     6    21 1   
    18     7     9 1   
    19     7    10 1   
    20     7    11 2   
    21     8    10 1   
    22     8    12 2   
    23    10    22 1   
@<TRIPOS>SUBSTRUCTURE
     1 M1Q         1 TEMP              0 ****  ****    0 ROOT
