@<TRIPOS>MOLECULE
M1Q
   22    23     1     0     0
SMALL
bcc


@<TRIPOS>ATOM
      1 CAC          2.7360     0.9880    -0.3780 c6         1 M1Q      -0.074400
      2 CAD          2.8550    -0.5180    -0.1940 c6         1 M1Q      -0.082400
      3 CAE          1.6320     1.5680     0.5120 c6         1 M1Q      -0.135700
      4 CAF          1.5290    -1.2140    -0.4610 c6         1 M1Q      -0.055400
      5 CAI          0.3420     0.8480     0.3040 c2         1 M1Q       0.511300
      6 CAJ          0.4140    -0.6420     0.4410 c6         1 M1Q      -0.263000
      7 CAK         -1.9210     0.8570    -0.1610 c          1 M1Q       0.846900
      8 CAL         -0.8920    -1.3410     0.1960 c          1 M1Q       0.724500
      9 NAG         -0.7110     1.5160     0.0280 ne         1 M1Q      -0.631100
     10 NAH         -1.9510    -0.5220    -0.0750 ns         1 M1Q      -0.628500
     11 OAA         -2.9310     1.4750    -0.3990 o          1 M1Q      -0.554500
     12 OAB         -1.0130    -2.5450     0.2330 o          1 M1Q      -0.588500
     13 H1           3.6790     1.4830    -0.1420 hc         1 M1Q       0.054200
     14 H2           2.5120     1.2150    -1.4240 hc         1 M1Q       0.054200
     15 H3           3.6170    -0.9200    -0.8640 hc         1 M1Q       0.050700
     16 H4           3.1850    -0.7390     0.8270 hc         1 M1Q       0.050700
     17 H5           1.9180     1.4440     1.5630 hc         1 M1Q       0.074200
     18 H6           1.4880     2.6320     0.3320 hc         1 M1Q       0.074200
     19 H7           1.2440    -1.0850    -1.5090 hc         1 M1Q       0.063200
     20 H8           1.6090    -2.2840    -0.2760 hc         1 M1Q       0.063200
     21 H9           0.6980    -0.8480     1.4820 hc         1 M1Q       0.104700
     22 H10         -2.8490    -0.9640    -0.2370 hn         1 M1Q       0.340500
@<TRIPOS>BOND
     1     1     2 1   
     2     1     3 1   
     3     1    13 1   
     4     1    14 1   
     5     2     4 1   
     6     2    15 1   
     7     2    16 1   
     8     3     5 1   
     9     3    17 1   
    10     3    18 1   
    11     4     6 1   
    12     4    19 1   
    13     4    20 1   
    14     5     6 1   
    15     5     9 2   
    16     6     8 1   
    17     6    21 1   
    18     7     9 1   
    19     7    10 1   
    20     7    11 2   
    21     8    10 1   
    22     8    12 2   
    23    10    22 1   
@<TRIPOS>SUBSTRUCTURE
     1 M1Q         1 TEMP              0 ****  ****    0 ROOT
