@<TRIPOS>MOLECULE
M1R
   76    81     1     0     0
SMALL
abcg2


@<TRIPOS>ATOM
      1 C18        -27.0660   -27.6130    23.3010 ca         1 M1R       0.273000
      2 N5         -22.2710   -27.0310    27.4050 nb         1 M1R      -0.352000
      3 C14        -24.6280   -24.3310    30.0560 c6         1 M1R       0.085000
      4 C13        -25.0180   -25.4740    29.1340 c6         1 M1R       0.215300
      5 C17        -22.8610   -26.3890    29.8940 c6         1 M1R       0.215300
      6 C16        -23.4990   -26.1630    31.2520 c6         1 M1R       0.085000
      7 N3         -22.6830   -27.6350    25.1660 nb         1 M1R      -0.231000
      8 C10        -24.8570   -27.7700    24.2060 c6         1 M1R       0.124500
      9 C8         -26.7080   -27.8550    25.7090 c6         1 M1R       0.183800
     10 C22        -27.7550   -26.9370    21.0400 ca         1 M1R      -0.026000
     11 C7         -26.0160   -27.0370    26.7860 c6         1 M1R      -0.001100
     12 C6         -23.5660   -26.7850    27.6130 ca         1 M1R       0.427900
     13 C1         -24.5220   -27.0370    26.5930 ca         1 M1R      -0.266300
     14 C4         -21.9030   -27.4420    26.2100 ca         1 M1R       0.398300
     15 C19        -27.9470   -28.6650    23.2290 ca         1 M1R      -0.157000
     16 C20        -28.7430   -28.8700    22.0840 ca         1 M1R      -0.092000
     17 C21        -28.6390   -28.0410    21.0030 ca         1 M1R      -0.111000
     18 C2         -23.9870   -27.4440    25.3850 ca         1 M1R       0.170300
     19 N9         -26.2410   -27.3890    24.4180 nh         1 M1R      -0.781400
     20 N12        -23.8770   -26.3360    28.8530 nh         1 M1R      -0.791300
     21 N15        -24.0970   -24.8390    31.3110 n          1 M1R      -0.415800
     22 C23        -26.9800   -26.6980    22.2060 ca         1 M1R      -0.036000
     23 C24        -27.6450   -26.0450    19.9470 ca         1 M1R      -0.107000
     24 C25        -26.8240   -24.9530    20.0100 ca         1 M1R      -0.101000
     25 C26        -26.0900   -24.6900    21.1850 ca         1 M1R      -0.117000
     26 C27        -26.1690   -25.5400    22.2550 ca         1 M1R      -0.084000
     27 C28        -19.6800   -27.5230    27.0380 c3         1 M1R       0.189600
     28 C29        -24.1400   -24.0610    32.4110 c          1 M1R       0.603100
     29 C30        -23.5980   -24.6230    33.7080 c3         1 M1R      -0.156400
     30 O31        -24.5810   -22.9160    32.3660 o          1 M1R      -0.605100
     31 C32        -22.1160   -24.2860    33.8830 c3         1 M1R      -0.086100
     32 C33        -18.2910   -27.7140    26.4630 c5         1 M1R       0.173500
     33 N34        -18.1170   -29.0410    25.8630 n3         1 M1R      -0.720600
     34 C35        -17.5680   -28.8690    24.5180 c5         1 M1R       0.168800
     35 C36        -16.9380   -27.4800    24.5030 c5         1 M1R      -0.108400
     36 C37        -17.9090   -26.6980    25.3780 c5         1 M1R      -0.089400
     37 C38        -17.3670   -29.9450    26.7050 c3         1 M1R       0.160100
     38 H1         -23.9020   -23.6810    29.5580 h1         1 M1R       0.059700
     39 H2         -25.5190   -23.7350    30.2470 h1         1 M1R       0.059700
     40 H3         -25.3810   -25.0250    28.2140 h1         1 M1R       0.060700
     41 H4         -25.8460   -26.0330    29.5760 h1         1 M1R       0.060700
     42 H5         -22.3840   -27.3680    29.8910 h1         1 M1R       0.060700
     43 H6         -22.0720   -25.6480    29.7300 h1         1 M1R       0.060700
     44 H7         -24.2420   -26.9420    31.4500 h1         1 M1R       0.059700
     45 H8         -22.7140   -26.2650    31.9970 h1         1 M1R       0.059700
     46 H9         -24.7630   -28.8490    24.0060 h1         1 M1R       0.069700
     47 H10        -24.4500   -27.2610    23.3300 h1         1 M1R       0.069700
     48 H11        -27.7850   -27.7040    25.7800 h1         1 M1R       0.041200
     49 H12        -26.5150   -28.9270    25.8600 h1         1 M1R       0.041200
     50 H13        -26.4280   -26.0260    26.7530 hc         1 M1R       0.049700
     51 H14        -26.2700   -27.4520    27.7650 hc         1 M1R       0.049700
     52 H15        -28.0300   -29.3650    24.0510 ha         1 M1R       0.112000
     53 H16        -29.4260   -29.7100    22.0620 ha         1 M1R       0.112000
     54 H17        -29.2360   -28.2120    20.1160 ha         1 M1R       0.114000
     55 H18        -28.2290   -26.2390    19.0550 ha         1 M1R       0.112000
     56 H19        -26.7470   -24.2790    19.1660 ha         1 M1R       0.112000
     57 H20        -25.4690   -23.8060    21.2420 ha         1 M1R       0.113000
     58 H21        -25.6240   -25.3140    23.1620 ha         1 M1R       0.129000
     59 H22        -19.7690   -26.5300    27.4880 h1         1 M1R       0.046200
     60 H23        -19.8710   -28.2580    27.8250 h1         1 M1R       0.046200
     61 H24        -24.1670   -24.1600    34.5150 hc         1 M1R       0.063200
     62 H25        -23.7550   -25.6980    33.7930 hc         1 M1R       0.063200
     63 H26        -21.7630   -24.6280    34.8550 hc         1 M1R       0.041033
     64 H27        -21.4930   -24.7560    33.1210 hc         1 M1R       0.041033
     65 H28        -21.9530   -23.2100    33.8280 hc         1 M1R       0.041033
     66 H29        -17.5960   -27.5920    27.3070 h1         1 M1R       0.039700
     67 H31        -18.3680   -28.9230    23.7720 h1         1 M1R       0.053200
     68 H32        -16.8560   -29.6630    24.2830 h1         1 M1R       0.053200
     69 H33        -15.9460   -27.5100    24.9610 hc         1 M1R       0.047200
     70 H34        -16.8280   -27.0690    23.4990 hc         1 M1R       0.047200
     71 H35        -17.4760   -25.7960    25.8100 hc         1 M1R       0.057200
     72 H36        -18.7820   -26.3950    24.7960 hc         1 M1R       0.057200
     73 H37        -17.8790   -30.0820    27.6590 h1         1 M1R       0.027033
     74 H38        -17.2950   -30.9270    26.2370 h1         1 M1R       0.027033
     75 H39        -16.3450   -29.6010    26.9290 h1         1 M1R       0.027033
     76 O11        -20.6180   -27.6860    25.9810 os         1 M1R      -0.422300
@<TRIPOS>BOND
     1     1    15 ar  
     2     1    19 1   
     3     1    22 ar  
     4     2    12 ar  
     5     2    14 ar  
     6     3     4 1   
     7     3    21 1   
     8     3    38 1   
     9     3    39 1   
    10     4    20 1   
    11     4    40 1   
    12     4    41 1   
    13     5     6 1   
    14     5    20 1   
    15     5    42 1   
    16     5    43 1   
    17     6    21 1   
    18     6    44 1   
    19     6    45 1   
    20     7    14 ar  
    21     7    18 ar  
    22     8    18 1   
    23     8    19 1   
    24     8    46 1   
    25     8    47 1   
    26     9    11 1   
    27     9    19 1   
    28     9    48 1   
    29     9    49 1   
    30    10    17 ar  
    31    10    22 ar  
    32    10    23 ar  
    33    11    13 1   
    34    11    50 1   
    35    11    51 1   
    36    12    13 ar  
    37    12    20 1   
    38    13    18 ar  
    39    14    76 1   
    40    15    16 ar  
    41    15    52 1   
    42    16    17 ar  
    43    16    53 1   
    44    17    54 1   
    45    21    28 1   
    46    22    26 ar  
    47    23    24 ar  
    48    23    55 1   
    49    24    25 ar  
    50    24    56 1   
    51    25    26 ar  
    52    25    57 1   
    53    26    58 1   
    54    27    32 1   
    55    27    59 1   
    56    27    60 1   
    57    27    76 1   
    58    28    29 1   
    59    28    30 2   
    60    29    31 1   
    61    29    61 1   
    62    29    62 1   
    63    31    63 1   
    64    31    64 1   
    65    31    65 1   
    66    32    33 1   
    67    32    36 1   
    68    32    66 1   
    69    33    34 1   
    70    33    37 1   
    71    34    35 1   
    72    34    67 1   
    73    34    68 1   
    74    35    36 1   
    75    35    69 1   
    76    35    70 1   
    77    36    71 1   
    78    36    72 1   
    79    37    73 1   
    80    37    74 1   
    81    37    75 1   
@<TRIPOS>SUBSTRUCTURE
     1 M1R         1 TEMP              0 ****  ****    0 ROOT
