@<TRIPOS>MOLECULE
M1R
   76    81     1     0     0
SMALL
No Charge or Current Charge


@<TRIPOS>ATOM
      1 C18        -27.1930   -27.7150    23.2690 ca         1 M1R       0.273000
      2 N5         -22.0750   -26.9250    27.2140 nb         1 M1R      -0.352000
      3 C14        -24.0550   -24.0180    29.9820 c6         1 M1R       0.085000
      4 C13        -24.5190   -24.9690    28.8410 c6         1 M1R       0.215300
      5 C17        -22.8630   -26.5450    29.9160 c6         1 M1R       0.215300
      6 C16        -23.5210   -26.1230    31.2620 c6         1 M1R       0.085000
      7 N3         -22.5700   -27.7150    25.0120 nb         1 M1R      -0.231000
      8 C10        -24.8330   -27.9260    24.0960 c6         1 M1R       0.124500
      9 C8         -26.7040   -27.7830    25.7350 c6         1 M1R       0.183800
     10 C22        -28.2540   -26.9260    21.2030 ca         1 M1R      -0.026000
     11 C7         -25.8680   -26.9170    26.7090 c6         1 M1R      -0.001100
     12 C6         -23.3830   -26.7400    27.4530 ca         1 M1R       0.427900
     13 C1         -24.3540   -27.0560    26.4820 ca         1 M1R      -0.266300
     14 C4         -21.7150   -27.4050    26.0050 ca         1 M1R       0.398300
     15 C19        -27.9900   -28.8750    23.2100 ca         1 M1R      -0.157000
     16 C20        -28.9080   -29.0650    22.1650 ca         1 M1R      -0.092000
     17 C21        -29.0380   -28.0930    21.1630 ca         1 M1R      -0.111000
     18 C2         -23.8830   -27.5420    25.2470 ca         1 M1R       0.170300
     19 N9         -26.2660   -27.5720    24.3300 nh         1 M1R      -0.781400
     20 N12        -23.7070   -26.2200    28.7250 nh         1 M1R      -0.791300
     21 N15        -23.9530   -24.6920    31.3110 n          1 M1R      -0.415800
     22 C23        -27.3270   -26.7270    22.2560 ca         1 M1R      -0.036000
     23 C24        -28.3970   -25.9570    20.1920 ca         1 M1R      -0.107000
     24 C25        -27.6260   -24.7840    20.2210 ca         1 M1R      -0.101000
     25 C26        -26.7110   -24.5740    21.2640 ca         1 M1R      -0.117000
     26 C27        -26.5620   -25.5370    22.2770 ca         1 M1R      -0.084000
     27 C28        -19.3600   -27.3020    26.7190 c3         1 M1R       0.189600
     28 C29        -24.1770   -23.9870    32.5160 c          1 M1R       0.603100
     29 C30        -24.1460   -24.7420    33.8590 c3         1 M1R      -0.156400
     30 O31        -24.4060   -22.7840    32.4990 o          1 M1R      -0.605100
     31 C32        -22.7570   -24.6450    34.5310 c3         1 M1R      -0.086100
     32 C33        -17.9450   -27.6300    26.1420 c5         1 M1R       0.173500
     33 N34        -17.7070   -29.0140    25.6490 n3         1 M1R      -0.720600
     34 C35        -16.3350   -28.9450    25.0970 c5         1 M1R       0.168800
     35 C36        -16.3550   -27.6170    24.2850 c5         1 M1R      -0.108400
     36 C37        -17.5730   -26.8300    24.8630 c5         1 M1R      -0.089400
     37 C38        -17.9240   -30.1000    26.6280 c3         1 M1R       0.160100
     38 H1         -23.0730   -23.5990    29.7230 h1         1 M1R       0.059700
     39 H2         -24.7620   -23.1790    30.0380 h1         1 M1R       0.059700
     40 H3         -24.4890   -24.4090    27.8940 h1         1 M1R       0.060700
     41 H4         -25.5710   -25.2320    29.0230 h1         1 M1R       0.060700
     42 H5         -22.6620   -27.6260    29.9530 h1         1 M1R       0.060700
     43 H6         -21.8910   -26.0370    29.8340 h1         1 M1R       0.060700
     44 H7         -24.4000   -26.7600    31.4380 h1         1 M1R       0.059700
     45 H8         -22.8020   -26.3250    32.0670 h1         1 M1R       0.059700
     46 H9         -24.7420   -29.0100    23.9280 h1         1 M1R       0.069700
     47 H10        -24.4720   -27.4320    23.1810 h1         1 M1R       0.069700
     48 H11        -27.7670   -27.5250    25.8500 h1         1 M1R       0.041200
     49 H12        -26.5900   -28.8430    26.0070 h1         1 M1R       0.041200
     50 H13        -26.1570   -25.8650    26.5840 hc         1 M1R       0.049700
     51 H14        -26.1300   -27.1960    27.7380 hc         1 M1R       0.049700
     52 H15        -27.8900   -29.6400    23.9740 ha         1 M1R       0.112000
     53 H16        -29.5150   -29.9670    22.1300 ha         1 M1R       0.112000
     54 H17        -29.7510   -28.2480    20.3550 ha         1 M1R       0.114000
     55 H18        -29.1070   -26.1110    19.3820 ha         1 M1R       0.112000
     56 H19        -27.7400   -24.0380    19.4380 ha         1 M1R       0.112000
     57 H20        -26.1170   -23.6630    21.2900 ha         1 M1R       0.113000
     58 H21        -25.8530   -25.3480    23.0790 ha         1 M1R       0.129000
     59 H22        -19.3890   -26.2400    26.9950 h1         1 M1R       0.046200
     60 H23        -19.5180   -27.8930    27.6300 h1         1 M1R       0.046200
     61 H24        -24.8840   -24.2960    34.5350 hc         1 M1R       0.063200
     62 H25        -24.3720   -25.8040    33.7170 hc         1 M1R       0.063200
     63 H26        -22.7540   -25.1910    35.4830 hc         1 M1R       0.041033
     64 H27        -21.9780   -25.0710    33.8890 hc         1 M1R       0.041033
     65 H28        -22.4990   -23.5990    34.7360 hc         1 M1R       0.041033
     66 H29        -17.2260   -27.3930    26.9400 h1         1 M1R       0.039700
     67 H31        -16.0920   -29.8110    24.4650 h1         1 M1R       0.053200
     68 H32        -15.5860   -28.8960    25.9000 h1         1 M1R       0.053200
     69 H33        -15.4140   -27.0680    24.4060 hc         1 M1R       0.047200
     70 H34        -16.4830   -27.8060    23.2140 hc         1 M1R       0.047200
     71 H35        -17.3290   -25.7860    25.0860 hc         1 M1R       0.057200
     72 H36        -18.4000   -26.8200    24.1420 hc         1 M1R       0.057200
     73 H37        -18.9700   -30.1240    26.9590 h1         1 M1R       0.027033
     74 H38        -17.6900   -31.0750    26.1790 h1         1 M1R       0.027033
     75 H39        -17.2840   -29.9650    27.5110 h1         1 M1R       0.027033
     76 O11        -20.3790   -27.5990    25.7350 os         1 M1R      -0.422300
@<TRIPOS>BOND
     1     1    15 ar  
     2     1    19 1   
     3     1    22 ar  
     4     2    12 ar  
     5     2    14 ar  
     6     3     4 1   
     7     3    21 1   
     8     3    38 1   
     9     3    39 1   
    10     4    20 1   
    11     4    40 1   
    12     4    41 1   
    13     5     6 1   
    14     5    20 1   
    15     5    42 1   
    16     5    43 1   
    17     6    21 1   
    18     6    44 1   
    19     6    45 1   
    20     7    14 ar  
    21     7    18 ar  
    22     8    18 1   
    23     8    19 1   
    24     8    46 1   
    25     8    47 1   
    26     9    11 1   
    27     9    19 1   
    28     9    48 1   
    29     9    49 1   
    30    10    17 ar  
    31    10    22 ar  
    32    10    23 ar  
    33    11    13 1   
    34    11    50 1   
    35    11    51 1   
    36    12    13 ar  
    37    12    20 1   
    38    13    18 ar  
    39    14    76 1   
    40    15    16 ar  
    41    15    52 1   
    42    16    17 ar  
    43    16    53 1   
    44    17    54 1   
    45    21    28 1   
    46    22    26 ar  
    47    23    24 ar  
    48    23    55 1   
    49    24    25 ar  
    50    24    56 1   
    51    25    26 ar  
    52    25    57 1   
    53    26    58 1   
    54    27    32 1   
    55    27    59 1   
    56    27    60 1   
    57    27    76 1   
    58    28    29 1   
    59    28    30 2   
    60    29    31 1   
    61    29    61 1   
    62    29    62 1   
    63    31    63 1   
    64    31    64 1   
    65    31    65 1   
    66    32    33 1   
    67    32    36 1   
    68    32    66 1   
    69    33    34 1   
    70    33    37 1   
    71    34    35 1   
    72    34    67 1   
    73    34    68 1   
    74    35    36 1   
    75    35    69 1   
    76    35    70 1   
    77    36    71 1   
    78    36    72 1   
    79    37    73 1   
    80    37    74 1   
    81    37    75 1   
@<TRIPOS>SUBSTRUCTURE
     1 M1R         1 TEMP              0 ****  ****    0 ROOT
