@<TRIPOS>MOLECULE
M1S
   45    46     1     0     0
SMALL
abcg2


@<TRIPOS>ATOM
      1 C1          -0.2840     1.4850    -0.8060 c          1 M1S       0.632700
      2 C2           1.0250     1.0380    -0.2690 ca         1 M1S      -0.266600
      3 C3           1.8880     1.9560     0.3730 ca         1 M1S       0.252100
      4 C4           3.1860     1.5910     0.7120 ca         1 M1S      -0.275000
      5 C5           3.6470     0.3150     0.4590 ca         1 M1S       0.223100
      6 C6           2.7800    -0.6160    -0.1270 ca         1 M1S       0.031000
      7 C7           1.4910    -0.2800    -0.4970 ca         1 M1S       0.079700
      8 C8           0.6110    -1.3800    -1.0080 c3         1 M1S      -0.166100
      9 C9           0.1090    -2.2780     0.1010 c          1 M1S       0.578100
     10 C10         -0.8270    -3.3860    -0.3230 c3         1 M1S      -0.178400
     11 C11         -2.1850    -3.2450     0.3670 c3         1 M1S      -0.066400
     12 C12         -2.9100    -1.9620    -0.0180 c3         1 M1S      -0.081400
     13 C13         -4.2170    -1.7690     0.7350 c3         1 M1S      -0.068400
     14 C14         -4.9630    -0.5020     0.3100 c3         1 M1S      -0.042200
     15 C15         -4.2310     0.7600     0.6430 c2         1 M1S      -0.203200
     16 C16         -3.8120     1.6550    -0.2460 c2         1 M1S      -0.226200
     17 C17         -3.1790     2.9670     0.0930 c3         1 M1S      -0.060200
     18 C18         -1.8950     3.2820    -0.6490 c3         1 M1S       0.177600
     19 O2          -0.8490     1.0180    -1.7620 o          1 M1S      -0.481000
     20 O3           1.5620     3.2150     0.6710 oh         1 M1S      -0.536100
     21 O4           4.8780    -0.0870     0.7650 oh         1 M1S      -0.503100
     22 CL1          3.3860    -2.2240    -0.3420 cl         1 M1S      -0.179000
     23 O5           0.3990    -2.1060     1.2610 o          1 M1S      -0.509100
     24 O1          -0.7750     2.5340    -0.1310 os         1 M1S      -0.493100
     25 H4           3.8300     2.3230     1.1860 ha         1 M1S       0.137000
     26 H8C1         1.1340    -2.0100    -1.7340 hc         1 M1S       0.096200
     27 H8C2        -0.2600    -1.0120    -1.5450 hc         1 M1S       0.096200
     28 H101        -0.3660    -4.3390    -0.0460 hc         1 M1S       0.061200
     29 H102        -0.9500    -3.3930    -1.4080 hc         1 M1S       0.061200
     30 H111        -2.0400    -3.2820     1.4500 hc         1 M1S       0.049200
     31 H112        -2.8020    -4.1090     0.1080 hc         1 M1S       0.049200
     32 H121        -3.1080    -1.9670    -1.0950 hc         1 M1S       0.044200
     33 H122        -2.2690    -1.0920     0.1620 hc         1 M1S       0.044200
     34 H131        -4.0190    -1.7350     1.8110 hc         1 M1S       0.040200
     35 H132        -4.8670    -2.6340     0.5720 hc         1 M1S       0.040200
     36 H141        -5.9370    -0.4880     0.8100 hc         1 M1S       0.044700
     37 H142        -5.1660    -0.5410    -0.7640 hc         1 M1S       0.044700
     38 H15         -4.0510     0.9450     1.7010 ha         1 M1S       0.168000
     39 H16         -3.9840     1.4670    -1.3040 ha         1 M1S       0.174000
     40 H171        -3.0190     3.0580     1.1710 hc         1 M1S       0.056700
     41 H172        -3.8730     3.7710    -0.1780 hc         1 M1S       0.056700
     42 H181        -1.6260     4.3260    -0.4930 h1         1 M1S       0.061200
     43 H182        -2.0000     3.1110    -1.7200 h1         1 M1S       0.061200
     44 H3           0.6090     3.3420     0.5270 ho         1 M1S       0.501000
     45 HA           5.3830     0.6360     1.1570 ho         1 M1S       0.475000
@<TRIPOS>BOND
     1     1     2 1   
     2     1    19 2   
     3     1    24 1   
     4     2     3 ar  
     5     2     7 ar  
     6     3     4 ar  
     7     3    20 1   
     8     4     5 ar  
     9     4    25 1   
    10     5     6 ar  
    11     5    21 1   
    12     6     7 ar  
    13     6    22 1   
    14     7     8 1   
    15     8     9 1   
    16     8    26 1   
    17     8    27 1   
    18     9    10 1   
    19     9    23 2   
    20    10    11 1   
    21    10    28 1   
    22    10    29 1   
    23    11    12 1   
    24    11    30 1   
    25    11    31 1   
    26    12    13 1   
    27    12    32 1   
    28    12    33 1   
    29    13    14 1   
    30    13    34 1   
    31    13    35 1   
    32    14    15 1   
    33    14    36 1   
    34    14    37 1   
    35    15    16 2   
    36    15    38 1   
    37    16    17 1   
    38    16    39 1   
    39    17    18 1   
    40    17    40 1   
    41    17    41 1   
    42    18    24 1   
    43    18    42 1   
    44    18    43 1   
    45    20    44 1   
    46    21    45 1   
@<TRIPOS>SUBSTRUCTURE
     1 M1S         1 TEMP              0 ****  ****    0 ROOT
