@<TRIPOS>MOLECULE
M1S
   45    46     1     0     0
SMALL
No Charge or Current Charge


@<TRIPOS>ATOM
      1 C1          -0.2890     1.6220    -0.6650 c          1 M1S       0.632700
      2 C2           1.1060     1.1370    -0.3300 ca         1 M1S      -0.266600
      3 C3           2.1030     2.0690     0.0480 ca         1 M1S       0.252100
      4 C4           3.4170     1.6680     0.2900 ca         1 M1S      -0.275000
      5 C5           3.7770     0.3270     0.1680 ca         1 M1S       0.223100
      6 C6           2.8100    -0.6320    -0.1900 ca         1 M1S       0.031000
      7 C7           1.4670    -0.2410    -0.4340 ca         1 M1S       0.079700
      8 C8           0.4500    -1.3410    -0.7680 c3         1 M1S      -0.166100
      9 C9           0.0560    -2.2230     0.4260 c          1 M1S       0.578100
     10 C10         -0.7960    -3.4630     0.1100 c3         1 M1S      -0.178400
     11 C11         -2.2760    -3.2880     0.5320 c3         1 M1S      -0.066400
     12 C12         -2.9480    -2.0300    -0.0620 c3         1 M1S      -0.081400
     13 C13         -4.4350    -1.8860     0.3240 c3         1 M1S      -0.068400
     14 C14         -5.0580    -0.5640    -0.1740 c3         1 M1S      -0.042200
     15 C15         -4.4210     0.6510     0.4710 c2         1 M1S      -0.203200
     16 C16         -3.6870     1.5770    -0.1660 c2         1 M1S      -0.226200
     17 C17         -3.0880     2.8020     0.5010 c3         1 M1S      -0.060200
     18 C18         -1.8740     3.4330    -0.2250 c3         1 M1S       0.177600
     19 O2          -0.8400     1.3320    -1.7160 o          1 M1S      -0.481000
     20 O3           1.8280     3.3930     0.1780 oh         1 M1S      -0.536100
     21 O4           5.0720    -0.0370     0.4060 oh         1 M1S      -0.503100
     22 Cl1          3.3020    -2.3330    -0.3300 cl         1 M1S      -0.179000
     23 O5           0.3950    -1.9600     1.5730 o          1 M1S      -0.509100
     24 O1          -0.6650     2.7060     0.0960 os         1 M1S      -0.493100
     25 H4           4.1560     2.4140     0.5700 ha         1 M1S       0.137000
     26 H8C1         0.8010    -1.9990    -1.5690 hc         1 M1S       0.096200
     27 H8C2        -0.4770    -1.0030    -1.2330 hc         1 M1S       0.096200
     28 H101        -0.3830    -4.3220     0.6510 hc         1 M1S       0.061200
     29 H102        -0.7720    -3.6640    -0.9680 hc         1 M1S       0.061200
     30 H111        -2.3320    -3.2390     1.6280 hc         1 M1S       0.049200
     31 H112        -2.8410    -4.1790     0.2280 hc         1 M1S       0.049200
     32 H121        -2.8610    -2.0510    -1.1550 hc         1 M1S       0.044200
     33 H122        -2.4090    -1.1410     0.2870 hc         1 M1S       0.044200
     34 H131        -4.5400    -1.9430     1.4140 hc         1 M1S       0.040200
     35 H132        -5.0000    -2.7280    -0.0950 hc         1 M1S       0.040200
     36 H141        -6.1330    -0.5740     0.0440 hc         1 M1S       0.044700
     37 H142        -4.9660    -0.5150    -1.2670 hc         1 M1S       0.044700
     38 H15         -4.6150     0.7430     1.5410 ha         1 M1S       0.168000
     39 H16         -3.5010     1.4940    -1.2390 ha         1 M1S       0.174000
     40 H171        -2.8120     2.5830     1.5400 hc         1 M1S       0.056700
     41 H172        -3.8650     3.5740     0.5560 hc         1 M1S       0.056700
     42 H181        -1.7740     4.4620     0.1430 h1         1 M1S       0.061200
     43 H182        -2.0520     3.4990    -1.3070 h1         1 M1S       0.061200
     44 H3           0.8430     3.4630     0.2100 ho         1 M1S       0.501000
     45 HA           5.5790     0.7680     0.6390 ho         1 M1S       0.475000
@<TRIPOS>BOND
     1     1     2 1   
     2     1    19 2   
     3     1    24 1   
     4     2     3 ar  
     5     2     7 ar  
     6     3     4 ar  
     7     3    20 1   
     8     4     5 ar  
     9     4    25 1   
    10     5     6 ar  
    11     5    21 1   
    12     6     7 ar  
    13     6    22 1   
    14     7     8 1   
    15     8     9 1   
    16     8    26 1   
    17     8    27 1   
    18     9    10 1   
    19     9    23 2   
    20    10    11 1   
    21    10    28 1   
    22    10    29 1   
    23    11    12 1   
    24    11    30 1   
    25    11    31 1   
    26    12    13 1   
    27    12    32 1   
    28    12    33 1   
    29    13    14 1   
    30    13    34 1   
    31    13    35 1   
    32    14    15 1   
    33    14    36 1   
    34    14    37 1   
    35    15    16 2   
    36    15    38 1   
    37    16    17 1   
    38    16    39 1   
    39    17    18 1   
    40    17    40 1   
    41    17    41 1   
    42    18    24 1   
    43    18    42 1   
    44    18    43 1   
    45    20    44 1   
    46    21    45 1   
@<TRIPOS>SUBSTRUCTURE
     1 M1S         1 TEMP              0 ****  ****    0 ROOT
