@<TRIPOS>MOLECULE
M1T
   25    24     1     0     0
SMALL
No Charge or Current Charge


@<TRIPOS>ATOM
      1 CAA          4.8530     0.1330     0.9060 c3         1 M1T       0.141900
      2 OAB          1.9080     0.2930    -2.1340 o          1 M1T      -0.483100
      3 OAC         -4.4840    -0.3910     0.4020 oh         1 M1T      -0.684000
      4 OAD         -2.9700     0.7480     1.5950 oh         1 M1T      -0.684000
      5 CAE         -0.7710    -0.0330    -0.3950 c3         1 M1T      -0.062400
      6 CAF          0.2970    -1.0250    -0.9180 c3         1 M1T      -0.181400
      7 CAG         -2.1550    -0.6940    -0.1850 c3         1 M1T      -0.110400
      8 CAH          2.6580    -0.4760     0.0650 c3         1 M1T       0.051600
      9 OAI          3.8990     0.2350    -0.1650 os         1 M1T      -0.422000
     10 CAJ          1.6580    -0.3380    -1.1120 c          1 M1T       0.564100
     11 CAK         -3.2510     0.2830     0.2950 c3         1 M1T       0.385300
     12 HAA          5.7630     0.6950     0.6600 h1         1 M1T       0.031700
     13 HAAA         4.4400     0.5430     1.8370 h1         1 M1T       0.031700
     14 HAAB         5.1340    -0.9140     1.0800 h1         1 M1T       0.031700
     15 HOAC        -5.1660     0.3140     0.4110 ho         1 M1T       0.452500
     16 HOAD        -2.6410    -0.0350     2.0830 ho         1 M1T       0.452500
     17 HAE         -0.4250     0.4030     0.5520 hc         1 M1T       0.059700
     18 HAEA        -0.8730     0.7970    -1.1070 hc         1 M1T       0.059700
     19 HAF          0.3980    -1.8240    -0.1740 hc         1 M1T       0.059700
     20 HAFA        -0.0390    -1.4360    -1.8780 hc         1 M1T       0.059700
     21 HAG         -2.4790    -1.1350    -1.1360 hc         1 M1T       0.054700
     22 HAGA        -2.0610    -1.5240     0.5280 hc         1 M1T       0.054700
     23 HAH          2.8490    -1.5470     0.2120 h1         1 M1T       0.037200
     24 HAHA         2.1590    -0.0990     0.9680 h1         1 M1T       0.037200
     25 HAK         -3.3470     1.1310    -0.3980 h2         1 M1T       0.060700
@<TRIPOS>BOND
     1     1     9 1   
     2     1    12 1   
     3     1    13 1   
     4     1    14 1   
     5     2    10 2   
     6     3    11 1   
     7     3    15 1   
     8     4    11 1   
     9     4    16 1   
    10     5     6 1   
    11     5     7 1   
    12     5    17 1   
    13     5    18 1   
    14     6    10 1   
    15     6    19 1   
    16     6    20 1   
    17     7    11 1   
    18     7    21 1   
    19     7    22 1   
    20     8     9 1   
    21     8    10 1   
    22     8    23 1   
    23     8    24 1   
    24    11    25 1   
@<TRIPOS>SUBSTRUCTURE
     1 M1T         1 TEMP              0 ****  ****    0 ROOT
