@<TRIPOS>MOLECULE
M1T
   25    24     1     0     0
SMALL
abcg2


@<TRIPOS>ATOM
      1 CAA          5.1970    -0.3220     0.2110 c3         1 M1T       0.141900
      2 OAB          1.5920     1.3740    -0.5100 o          1 M1T      -0.483100
      3 OAC         -4.5130    -0.8930     0.0520 oh         1 M1T      -0.684000
      4 OAD         -3.6430     1.2250     0.4390 oh         1 M1T      -0.684000
      5 CAE         -0.9510     0.1940    -0.1490 c3         1 M1T      -0.062400
      6 CAF          0.3390    -0.5750     0.0820 c3         1 M1T      -0.181400
      7 CAG         -2.1710    -0.6840     0.0960 c3         1 M1T      -0.110400
      8 CAH          2.8780    -0.4970     0.2060 c3         1 M1T       0.051600
      9 OAI          3.9740     0.3080    -0.0830 os         1 M1T      -0.422000
     10 CAJ          1.5940     0.2320    -0.1190 c          1 M1T       0.564100
     11 CAK         -3.4820     0.0090    -0.2370 c3         1 M1T       0.385300
     12 HAA          5.9980     0.3670    -0.0540 h1         1 M1T       0.031700
     13 HAAA         5.2880    -0.5670     1.2760 h1         1 M1T       0.031700
     14 HAAB         5.3330    -1.2470    -0.3610 h1         1 M1T       0.031700
     15 HOAC        -5.3360    -0.5540    -0.3160 ho         1 M1T       0.452500
     16 HOAD        -3.4990     1.0800     1.3820 ho         1 M1T       0.452500
     17 HAE         -0.9800     1.0650     0.5070 hc         1 M1T       0.059700
     18 HAEA        -0.9720     0.5740    -1.1750 hc         1 M1T       0.059700
     19 HAF          0.3630    -0.9980     1.0930 hc         1 M1T       0.059700
     20 HAFA         0.3940    -1.4420    -0.5870 hc         1 M1T       0.059700
     21 HAG         -2.1010    -1.5890    -0.5140 hc         1 M1T       0.054700
     22 HAGA        -2.1910    -1.0130     1.1420 hc         1 M1T       0.054700
     23 HAH          2.8930    -1.4410    -0.3600 h1         1 M1T       0.037200
     24 HAHA         2.8420    -0.7860     1.2690 h1         1 M1T       0.037200
     25 HAK         -3.4920     0.2830    -1.2990 h2         1 M1T       0.060700
@<TRIPOS>BOND
     1     1     9 1   
     2     1    12 1   
     3     1    13 1   
     4     1    14 1   
     5     2    10 2   
     6     3    11 1   
     7     3    15 1   
     8     4    11 1   
     9     4    16 1   
    10     5     6 1   
    11     5     7 1   
    12     5    17 1   
    13     5    18 1   
    14     6    10 1   
    15     6    19 1   
    16     6    20 1   
    17     7    11 1   
    18     7    21 1   
    19     7    22 1   
    20     8     9 1   
    21     8    10 1   
    22     8    23 1   
    23     8    24 1   
    24    11    25 1   
@<TRIPOS>SUBSTRUCTURE
     1 M1T         1 TEMP              0 ****  ****    0 ROOT
