@<TRIPOS>MOLECULE
M1U
   29    29     1     0     0
SMALL
No Charge or Current Charge


@<TRIPOS>ATOM
      1 C6          -8.9540     6.2570    14.0040 c6         1 M1U      -0.064400
      2 C5          -9.7420     6.1340    15.3370 c6         1 M1U      -0.104400
      3 C4         -11.1050     5.3990    15.1580 c6         1 M1U       0.179000
      4 C3         -11.9510     6.0970    14.0310 c6         1 M1U       0.167300
      5 C2         -11.1560     6.2280    12.7020 c6         1 M1U      -0.072400
      6 C1          -9.7970     6.9590    12.9030 c6         1 M1U      -0.023500
      7 C7          -9.0240     7.0810    11.5870 c2         1 M1U      -0.107400
      8 C8          -8.5960     6.0070    10.9030 c2         1 M1U      -0.323000
      9 C9          -8.7790     8.5020    11.1130 c3         1 M1U      -0.057900
     10 C10        -11.8760     5.3470    16.5080 c3         1 M1U      -0.117100
     11 O11        -10.8520     4.0340    14.7940 oh         1 M1U      -0.663000
     12 Cl1        -12.5870     7.7700    14.5430 cl         1 M1U      -0.303000
     13 H1          -8.6430     5.2590    13.6660 hc         1 M1U       0.045700
     14 H2          -8.0290     6.8240    14.1760 hc         1 M1U       0.045700
     15 H3          -9.1240     5.6130    16.0800 hc         1 M1U       0.049700
     16 H4          -9.9150     7.1400    15.7450 hc         1 M1U       0.049700
     17 H5         -12.8620     5.5090    13.8490 h1         1 M1U       0.083700
     18 H6         -11.7630     6.7650    11.9610 hc         1 M1U       0.062200
     19 H7         -10.9840     5.2260    12.2870 hc         1 M1U       0.062200
     20 H8         -10.0160     7.9740    13.2640 hc         1 M1U       0.062700
     21 H9          -8.7770     4.9900    11.2500 ha         1 M1U       0.163000
     22 H10         -8.0460     6.1070     9.9660 ha         1 M1U       0.163000
     23 H11         -8.1970     9.0680    11.8510 hc         1 M1U       0.039700
     24 H12         -8.2240     8.5250    10.1680 hc         1 M1U       0.039700
     25 H13         -9.7250     9.0320    10.9530 hc         1 M1U       0.039700
     26 H14        -11.3220     4.7780    17.2650 hc         1 M1U       0.047033
     27 H15        -12.0420     6.3490    16.9220 hc         1 M1U       0.047033
     28 H16        -12.8560     4.8710    16.3890 hc         1 M1U       0.047033
     29 H17        -10.2600     3.6640    15.4830 ho         1 M1U       0.446000
@<TRIPOS>BOND
     1     1     2 1   
     2     1     6 1   
     3     1    13 1   
     4     1    14 1   
     5     2     3 1   
     6     2    15 1   
     7     2    16 1   
     8     3     4 1   
     9     3    10 1   
    10     3    11 1   
    11     4     5 1   
    12     4    12 1   
    13     4    17 1   
    14     5     6 1   
    15     5    18 1   
    16     5    19 1   
    17     6     7 1   
    18     6    20 1   
    19     7     8 2   
    20     7     9 1   
    21     8    21 1   
    22     8    22 1   
    23     9    23 1   
    24     9    24 1   
    25     9    25 1   
    26    10    26 1   
    27    10    27 1   
    28    10    28 1   
    29    11    29 1   
@<TRIPOS>SUBSTRUCTURE
     1 M1U         1 TEMP              0 ****  ****    0 ROOT
