@<TRIPOS>MOLECULE
M1U
   29    29     1     0     0
SMALL
abcg2


@<TRIPOS>ATOM
      1 C6          -9.0880     6.5930    14.0120 c6         1 M1U      -0.064400
      2 C5          -9.9000     6.4810    15.2970 c6         1 M1U      -0.104400
      3 C4         -11.0280     5.4520    15.2080 c6         1 M1U       0.179000
      4 C3         -11.8990     5.7340    13.9730 c6         1 M1U       0.167300
      5 C2         -11.0910     5.8790    12.6950 c6         1 M1U      -0.072400
      6 C1          -9.9780     6.9150    12.8030 c6         1 M1U      -0.023500
      7 C7          -9.1650     7.0720    11.5390 c2         1 M1U      -0.107400
      8 C8          -9.3020     6.2920    10.4680 c2         1 M1U      -0.323000
      9 C9          -8.1690     8.1970    11.5460 c3         1 M1U      -0.057900
     10 C10        -11.8360     5.4120    16.5010 c3         1 M1U      -0.117100
     11 O11        -10.5090     4.1590    14.9320 oh         1 M1U      -0.663000
     12 CL1        -12.8750     7.2410    14.2310 cl         1 M1U      -0.303000
     13 H1          -8.5460     5.6620    13.8210 hc         1 M1U       0.045700
     14 H2          -8.3320     7.3700    14.1460 hc         1 M1U       0.045700
     15 H3          -9.2430     6.2170    16.1330 hc         1 M1U       0.049700
     16 H4         -10.3240     7.4570    15.5470 hc         1 M1U       0.049700
     17 H5         -12.6400     4.9400    13.8630 h1         1 M1U       0.083700
     18 H6         -11.7680     6.1150    11.8710 hc         1 M1U       0.062200
     19 H7         -10.6650     4.8970    12.4720 hc         1 M1U       0.062200
     20 H8         -10.4400     7.8930    12.9940 hc         1 M1U       0.062700
     21 H9         -10.0050     5.4710    10.4200 ha         1 M1U       0.163000
     22 H10         -8.7010     6.4540     9.5810 ha         1 M1U       0.163000
     23 H11         -7.3590     8.0140    12.2540 hc         1 M1U       0.039700
     24 H12         -7.7220     8.3400    10.5630 hc         1 M1U       0.039700
     25 H13         -8.6410     9.1360    11.8450 hc         1 M1U       0.039700
     26 H14        -11.2040     5.0510    17.3160 hc         1 M1U       0.047033
     27 H15        -12.2070     6.3930    16.7880 hc         1 M1U       0.047033
     28 H16        -12.6880     4.7350    16.4130 hc         1 M1U       0.047033
     29 H17         -9.8780     3.9360    15.6260 ho         1 M1U       0.446000
@<TRIPOS>BOND
     1     1     2 1   
     2     1     6 1   
     3     1    13 1   
     4     1    14 1   
     5     2     3 1   
     6     2    15 1   
     7     2    16 1   
     8     3     4 1   
     9     3    10 1   
    10     3    11 1   
    11     4     5 1   
    12     4    12 1   
    13     4    17 1   
    14     5     6 1   
    15     5    18 1   
    16     5    19 1   
    17     6     7 1   
    18     6    20 1   
    19     7     8 2   
    20     7     9 1   
    21     8    21 1   
    22     8    22 1   
    23     9    23 1   
    24     9    24 1   
    25     9    25 1   
    26    10    26 1   
    27    10    27 1   
    28    10    28 1   
    29    11    29 1   
@<TRIPOS>SUBSTRUCTURE
     1 M1U         1 TEMP              0 ****  ****    0 ROOT
