@<TRIPOS>MOLECULE
M1V
   79    82     1     0     0
SMALL
No Charge or Current Charge


@<TRIPOS>ATOM
      1 OA          -4.3160    -0.0540     1.7560 o          1 M1V      -0.543000
      2 C1A         -3.9640     0.9550     1.1650 c          1 M1V       0.559200
      3 NA          -2.6900     1.3450     0.9160 ns         1 M1V      -0.413100
      4 C2A         -4.7600     2.0410     0.5750 cc         1 M1V      -0.182400
      5 CMA         -6.2670     1.9820     0.6280 c3         1 M1V      -0.021900
      6 C3A         -3.9270     3.0040     0.0260 cd         1 M1V      -0.038200
      7 CAA         -4.3490     4.2690    -0.6850 c3         1 M1V      -0.027200
      8 CBA         -4.2950     5.5040     0.2320 c3         1 M1V      -0.087100
      9 C4A         -2.5790     2.5430     0.2570 cd         1 M1V       0.005600
     10 CHA         -1.4270     3.1820    -0.1460 ce         1 M1V      -0.130200
     11 C1B         -0.0370     2.7390    -0.2120 cc         1 M1V      -0.134800
     12 C2B          1.1250     3.4570    -0.3540 cd         1 M1V      -0.143300
     13 CMB          1.2280     4.9580    -0.4860 c3         1 M1V      -0.010800
     14 C3B          2.2260     2.5510    -0.3530 cd         1 M1V      -0.039300
     15 CAB          3.6810     2.9360    -0.4960 c3         1 M1V      -0.014100
     16 CBB          4.3580     3.2100     0.8680 c3         1 M1V      -0.201400
     17 CGB          5.8100     3.6650     0.6490 c          1 M1V       0.718000
     18 O2B          6.0230     4.8590     0.4990 o          1 M1V      -0.738500
     19 O1B          6.6790     2.8100     0.5850 o          1 M1V      -0.738500
     20 NB           0.3580     1.4130    -0.1220 na         1 M1V      -0.082000
     21 C4B          1.7330     1.2780    -0.2120 cc         1 M1V      -0.185800
     22 CHB          2.3870    -0.0310    -0.1470 ce         1 M1V       0.040800
     23 C1C          1.8270    -1.2900    -0.0100 cd         1 M1V       0.006600
     24 C2C          2.5610    -2.4850     0.2950 cd         1 M1V      -0.012200
     25 CAC          4.0510    -2.6390     0.5120 c3         1 M1V      -0.022200
     26 CBC          4.8250    -2.8200    -0.8140 c3         1 M1V      -0.200400
     27 CGC          6.3200    -3.0340    -0.5250 c          1 M1V       0.719000
     28 O2C          7.0380    -2.0500    -0.4450 o          1 M1V      -0.738500
     29 O1C          6.7130    -4.1750    -0.3370 o          1 M1V      -0.738500
     30 C3C          1.5980    -3.4570     0.3540 cc         1 M1V      -0.288800
     31 CMC          1.7500    -4.9340     0.6260 c3         1 M1V      -0.010900
     32 NC           0.4610    -1.5050    -0.1390 nd         1 M1V      -0.651300
     33 C4C          0.3560    -2.8050     0.0920 cc         1 M1V       0.468900
     34 CHC         -0.9460    -3.4600     0.0550 ce         1 M1V      -0.245600
     35 C1D         -2.1830    -3.0270    -0.3620 cd         1 M1V       0.038600
     36 C2D         -3.4300    -3.7350    -0.2170 cd         1 M1V      -0.042200
     37 CMD         -3.6270    -5.0890     0.4210 c3         1 M1V      -0.041900
     38 ND          -2.4780    -1.8440    -0.9770 ns         1 M1V      -0.401100
     39 C4D         -3.7860    -1.6720    -1.2750 c          1 M1V       0.563200
     40 OD          -4.2900    -0.7110    -1.8370 o          1 M1V      -0.550000
     41 C3D         -4.4000    -2.9120    -0.7730 cc         1 M1V      -0.193400
     42 CAD         -5.8880    -3.1210    -0.9150 c3         1 M1V      -0.008200
     43 CBD         -6.6870    -2.4720     0.2300 c3         1 M1V      -0.086100
     44 H1          -6.6160     1.4150     1.4980 hc         1 M1V       0.040700
     45 H2          -6.6980     2.9880     0.6950 hc         1 M1V       0.040700
     46 H3          -6.6670     1.5010    -0.2720 hc         1 M1V       0.040700
     47 H4          -3.7120     4.4410    -1.5610 hc         1 M1V       0.049700
     48 H5          -5.3690     4.1610    -1.0740 hc         1 M1V       0.049700
     49 H6          -4.9630     5.3740     1.0920 hc         1 M1V       0.034033
     50 H7          -3.2770     5.6670     0.6070 hc         1 M1V       0.034033
     51 H8          -4.6080     6.4020    -0.3150 hc         1 M1V       0.034033
     52 H9          -1.5860     4.1690    -0.5780 ha         1 M1V       0.191000
     53 H11          2.1380     5.3430    -0.0120 hc         1 M1V       0.033700
     54 H12          1.2480     5.2560    -1.5410 hc         1 M1V       0.033700
     55 H13          0.3790     5.4620    -0.0110 hc         1 M1V       0.033700
     56 H14          4.2300     2.1440    -1.0200 hc         1 M1V       0.059700
     57 H15          3.7710     3.8270    -1.1290 hc         1 M1V       0.059700
     58 H16          3.7730     4.0080     1.3410 hc         1 M1V       0.018700
     59 H17          4.3280     2.2590     1.4140 hc         1 M1V       0.018700
     60 H19         -0.2630     0.6140    -0.0460 hn         1 M1V       0.378000
     61 H20          3.4720     0.0100    -0.0720 ha         1 M1V       0.232000
     62 H22          4.4480    -1.7720     1.0530 hc         1 M1V       0.058700
     63 H23          4.2450    -3.5010     1.1620 hc         1 M1V       0.058700
     64 H24          4.3960    -3.7100    -1.2910 hc         1 M1V       0.020700
     65 H25          4.6700    -1.8960    -1.3840 hc         1 M1V       0.020700
     66 H27          1.1750    -5.5270    -0.0950 hc         1 M1V       0.028700
     67 H28          2.7950    -5.2550     0.5480 hc         1 M1V       0.028700
     68 H29          1.3950    -5.1830     1.6330 hc         1 M1V       0.028700
     69 H31         -0.9360    -4.4580     0.4800 ha         1 M1V       0.184000
     70 H33         -3.2270    -5.8830    -0.2200 hc         1 M1V       0.044700
     71 H34         -3.1150    -5.1450     1.3890 hc         1 M1V       0.044700
     72 H35         -4.6860    -5.3030     0.6000 hc         1 M1V       0.044700
     73 H36         -6.2350    -2.7070    -1.8700 hc         1 M1V       0.042200
     74 H37         -6.1170    -4.1920    -0.9480 hc         1 M1V       0.042200
     75 H38         -6.3780    -2.8840     1.1980 hc         1 M1V       0.034700
     76 H39         -6.5250    -1.3870     0.2480 hc         1 M1V       0.034700
     77 H40         -7.7600    -2.6570     0.1010 hc         1 M1V       0.034700
     78 H41         -1.9210     0.8010     1.2840 hn         1 M1V       0.345500
     79 H10         -1.7940    -1.1420    -1.2280 hn         1 M1V       0.363500
@<TRIPOS>BOND
     1     1     2 2   
     2     2     3 1   
     3     2     4 1   
     4     3     9 1   
     5     3    78 1   
     6     4     5 1   
     7     4     6 2   
     8     5    44 1   
     9     5    45 1   
    10     5    46 1   
    11     6     7 1   
    12     6     9 1   
    13     7     8 1   
    14     7    47 1   
    15     7    48 1   
    16     8    49 1   
    17     8    50 1   
    18     8    51 1   
    19     9    10 2   
    20    10    11 1   
    21    10    52 1   
    22    11    12 2   
    23    11    20 1   
    24    12    13 1   
    25    12    14 1   
    26    13    53 1   
    27    13    54 1   
    28    13    55 1   
    29    14    15 1   
    30    14    21 2   
    31    15    16 1   
    32    15    56 1   
    33    15    57 1   
    34    16    17 1   
    35    16    58 1   
    36    16    59 1   
    37    17    18 1   
    38    17    19 1   
    39    20    21 1   
    40    20    60 1   
    41    21    22 1   
    42    22    23 2   
    43    22    61 1   
    44    23    24 1   
    45    23    32 1   
    46    24    25 1   
    47    24    30 2   
    48    25    26 1   
    49    25    62 1   
    50    25    63 1   
    51    26    27 1   
    52    26    64 1   
    53    26    65 1   
    54    27    28 1   
    55    27    29 1   
    56    30    31 1   
    57    30    33 1   
    58    31    66 1   
    59    31    67 1   
    60    31    68 1   
    61    32    33 2   
    62    33    34 1   
    63    34    35 2   
    64    34    69 1   
    65    35    36 1   
    66    35    38 1   
    67    36    37 1   
    68    36    41 2   
    69    37    70 1   
    70    37    71 1   
    71    37    72 1   
    72    38    39 1   
    73    38    79 1   
    74    39    40 2   
    75    39    41 1   
    76    41    42 1   
    77    42    43 1   
    78    42    73 1   
    79    42    74 1   
    80    43    75 1   
    81    43    76 1   
    82    43    77 1   
@<TRIPOS>SUBSTRUCTURE
     1 M1V         1 TEMP              0 ****  ****    0 ROOT
