@<TRIPOS>MOLECULE
M1V
   79    82     1     0     0
SMALL
bcc


@<TRIPOS>ATOM
      1 OA          -4.1160    -0.0110     1.8520 o          1 M1V      -0.618500
      2 C1A         -3.7900     0.9210     1.1450 c          1 M1V       0.701700
      3 NA          -2.4970     1.2550     0.8070 ns         1 M1V      -0.480100
      4 C2A         -4.6560     1.9290     0.5030 cc         1 M1V      -0.182400
      5 CMA         -6.1340     1.8400     0.5840 c3         1 M1V      -0.021900
      6 C3A         -3.8690     2.8380    -0.1030 cd         1 M1V      -0.038200
      7 CAA         -4.2790     4.0730    -0.8330 c3         1 M1V      -0.027200
      8 CBA         -4.2040     5.3150     0.0560 c3         1 M1V      -0.087100
      9 C4A         -2.4740     2.4320     0.0760 cd         1 M1V       0.005600
     10 CHA         -1.3910     3.0720    -0.4100 ce         1 M1V      -0.080200
     11 C1B         -0.0280     2.6320    -0.3710 cc         1 M1V      -0.084100
     12 C2B          1.1380     3.4000    -0.5060 cd         1 M1V      -0.143300
     13 CMB          1.2100     4.8800    -0.6760 c3         1 M1V      -0.010800
     14 C3B          2.2300     2.5280    -0.4000 cd         1 M1V      -0.039300
     15 CAB          3.6710     2.9120    -0.4080 c3         1 M1V      -0.014100
     16 CBB          4.1500     3.3660     0.9700 c3         1 M1V      -0.201400
     17 CGB          5.6310     3.7800     1.0440 c          1 M1V       0.928600
     18 O2B          6.0060     4.2640     2.1320 o          1 M1V      -0.843800
     19 O1B          6.3370     3.5920     0.0340 o          1 M1V      -0.843800
     20 NB           0.3480     1.3430    -0.1920 na         1 M1V      -0.133100
     21 C4B          1.7100     1.2380    -0.2150 cc         1 M1V      -0.135100
     22 CHB          2.3840     0.0100    -0.0620 ce         1 M1V       0.090800
     23 C1C          1.8080    -1.2260     0.0720 cd         1 M1V       0.006600
     24 C2C          2.5130    -2.4630     0.3500 cd         1 M1V      -0.012200
     25 CAC          3.9940    -2.6310     0.4290 c3         1 M1V      -0.022200
     26 CBC          4.6170    -2.8710    -0.9440 c3         1 M1V      -0.200400
     27 CGC          6.1430    -3.0790    -0.9460 c          1 M1V       0.929600
     28 O2C          6.7500    -2.9540     0.1360 o          1 M1V      -0.843800
     29 O1C          6.6500    -3.3540    -2.0540 o          1 M1V      -0.843800
     30 C3C          1.5480    -3.4180     0.4710 cc         1 M1V      -0.288800
     31 CMC          1.7060    -4.8740     0.7460 c3         1 M1V      -0.010900
     32 NC           0.4460    -1.4510     0.0080 nd         1 M1V      -0.651300
     33 C4C          0.2850    -2.7410     0.2390 cc         1 M1V       0.468900
     34 CHC         -0.9840    -3.4160     0.2530 ce         1 M1V      -0.195600
     35 C1D         -2.1610    -2.9150    -0.1770 cd         1 M1V       0.038600
     36 C2D         -3.4620    -3.5900    -0.1460 cd         1 M1V      -0.042200
     37 CMD         -3.6630    -4.9490     0.4190 c3         1 M1V      -0.041900
     38 ND          -2.3710    -1.6840    -0.7500 ns         1 M1V      -0.468100
     39 C4D         -3.6870    -1.5160    -1.0970 c          1 M1V       0.705700
     40 OD          -4.1610    -0.5440    -1.6500 o          1 M1V      -0.625500
     41 C3D         -4.3780    -2.7610    -0.6810 cc         1 M1V      -0.193400
     42 CAD         -5.8490    -2.9350    -0.8230 c3         1 M1V      -0.008200
     43 CBD         -6.5980    -2.4530     0.4210 c3         1 M1V      -0.086100
     44 H1          -6.4720     1.8100     1.6210 hc         1 M1V       0.040700
     45 H2          -6.6210     2.6840     0.0980 hc         1 M1V       0.040700
     46 H3          -6.4900     0.9250     0.1070 hc         1 M1V       0.040700
     47 H4          -3.6500     4.2130    -1.7150 hc         1 M1V       0.049700
     48 H5          -5.2970     3.9540    -1.2070 hc         1 M1V       0.049700
     49 H6          -4.8660     5.2200     0.9170 hc         1 M1V       0.034033
     50 H7          -3.1930     5.4820     0.4290 hc         1 M1V       0.034033
     51 H8          -4.5040     6.2030    -0.5020 hc         1 M1V       0.034033
     52 H9          -1.5670     4.0260    -0.8890 ha         1 M1V       0.141000
     53 H11          1.4630     5.3820     0.2610 hc         1 M1V       0.033700
     54 H12          1.9780     5.1550    -1.4000 hc         1 M1V       0.033700
     55 H13          0.2690     5.3040    -1.0250 hc         1 M1V       0.033700
     56 H14          4.2870     2.0800    -0.7530 hc         1 M1V       0.059700
     57 H15          3.8260     3.7170    -1.1310 hc         1 M1V       0.059700
     58 H16          3.5330     4.1990     1.3220 hc         1 M1V       0.018700
     59 H17          3.9830     2.5600     1.6940 hc         1 M1V       0.018700
     60 H19         -0.2260     0.5100    -0.1840 hn         1 M1V       0.327700
     61 H20          3.4650     0.0670    -0.0310 ha         1 M1V       0.182000
     62 H22          4.4510    -1.7530     0.8900 hc         1 M1V       0.058700
     63 H23          4.2310    -3.4680     1.0890 hc         1 M1V       0.058700
     64 H24          4.1450    -3.7400    -1.4150 hc         1 M1V       0.020700
     65 H25          4.3870    -2.0290    -1.6060 hc         1 M1V       0.020700
     66 H27          1.4030    -5.4810    -0.1100 hc         1 M1V       0.028700
     67 H28          2.7410    -5.1250     0.9730 hc         1 M1V       0.028700
     68 H29          1.0980    -5.1980     1.5940 hc         1 M1V       0.028700
     69 H31         -0.9930    -4.4320     0.6260 ha         1 M1V       0.134000
     70 H33         -3.0120    -5.6810    -0.0630 hc         1 M1V       0.044700
     71 H34         -3.4340    -4.9700     1.4860 hc         1 M1V       0.044700
     72 H35         -4.6910    -5.2820     0.2930 hc         1 M1V       0.044700
     73 H36         -6.1960    -2.3790    -1.6960 hc         1 M1V       0.042200
     74 H37         -6.0860    -3.9840    -1.0090 hc         1 M1V       0.042200
     75 H38         -6.3260    -3.0500     1.2920 hc         1 M1V       0.034700
     76 H39         -6.3590    -1.4140     0.6450 hc         1 M1V       0.034700
     77 H40         -7.6760    -2.5330     0.2800 hc         1 M1V       0.034700
     78 H41         -1.7120     0.8930     1.3260 hn         1 M1V       0.345500
     79 H10         -1.6270    -1.0300    -0.9340 hn         1 M1V       0.363500
@<TRIPOS>BOND
     1     1     2 2   
     2     2     3 1   
     3     2     4 1   
     4     3     9 1   
     5     3    78 1   
     6     4     5 1   
     7     4     6 2   
     8     5    44 1   
     9     5    45 1   
    10     5    46 1   
    11     6     7 1   
    12     6     9 1   
    13     7     8 1   
    14     7    47 1   
    15     7    48 1   
    16     8    49 1   
    17     8    50 1   
    18     8    51 1   
    19     9    10 2   
    20    10    11 1   
    21    10    52 1   
    22    11    12 2   
    23    11    20 1   
    24    12    13 1   
    25    12    14 1   
    26    13    53 1   
    27    13    54 1   
    28    13    55 1   
    29    14    15 1   
    30    14    21 2   
    31    15    16 1   
    32    15    56 1   
    33    15    57 1   
    34    16    17 1   
    35    16    58 1   
    36    16    59 1   
    37    17    18 1   
    38    17    19 1   
    39    20    21 1   
    40    20    60 1   
    41    21    22 1   
    42    22    23 2   
    43    22    61 1   
    44    23    24 1   
    45    23    32 1   
    46    24    25 1   
    47    24    30 2   
    48    25    26 1   
    49    25    62 1   
    50    25    63 1   
    51    26    27 1   
    52    26    64 1   
    53    26    65 1   
    54    27    28 1   
    55    27    29 1   
    56    30    31 1   
    57    30    33 1   
    58    31    66 1   
    59    31    67 1   
    60    31    68 1   
    61    32    33 2   
    62    33    34 1   
    63    34    35 2   
    64    34    69 1   
    65    35    36 1   
    66    35    38 1   
    67    36    37 1   
    68    36    41 2   
    69    37    70 1   
    70    37    71 1   
    71    37    72 1   
    72    38    39 1   
    73    38    79 1   
    74    39    40 2   
    75    39    41 1   
    76    41    42 1   
    77    42    43 1   
    78    42    73 1   
    79    42    74 1   
    80    43    75 1   
    81    43    76 1   
    82    43    77 1   
@<TRIPOS>SUBSTRUCTURE
     1 M1V         1 TEMP              0 ****  ****    0 ROOT
