@<TRIPOS>MOLECULE
M1W
   38    40     1     0     0
SMALL
bcc


@<TRIPOS>ATOM
      1 C1           8.7890    -0.8220     0.2310 c3         1 M1W       0.123700
      2 O2           7.4180    -1.1270     0.2690 os         1 M1W      -0.407600
      3 C3           6.6100    -0.0100     0.0000 c3         1 M1W       0.139400
      4 C4           5.1550    -0.4340     0.0470 c3         1 M1W      -0.101400
      5 C5           4.2370     0.7470    -0.2190 c3         1 M1W       0.104000
      6 N6           2.8510     0.3170    -0.1910 ns         1 M1W      -0.559900
      7 C7           1.8410     1.1810    -0.1150 c          1 M1W       0.604600
      8 O8           1.9450     2.3910    -0.0480 o          1 M1W      -0.544100
      9 C9           0.4720     0.5710    -0.1010 cc         1 M1W       0.460900
     10 N10         -0.6380     1.2100    -0.0110 nd         1 M1W      -0.658000
     11 C11         -1.5660     0.2040    -0.0370 cd         1 M1W       0.621500
     12 N12         -1.0310    -0.9810    -0.1390 nc         1 M1W      -0.364300
     13 O13          0.3110    -0.7400    -0.1800 os         1 M1W      -0.143100
     14 C14         -3.0000     0.4430     0.0440 ca         1 M1W      -0.111500
     15 C15         -3.4630     1.7450     0.1660 ca         1 M1W      -0.097000
     16 C16         -4.8300     2.0300     0.2490 ca         1 M1W      -0.129000
     17 C17         -5.7730     1.0210     0.2130 ca         1 M1W      -0.118000
     18 C18         -5.3120    -0.2860     0.0900 ca         1 M1W      -0.065200
     19 C19         -3.9370    -0.6090     0.0040 ca         1 M1W      -0.062800
     20 C20         -3.8580    -2.0290    -0.1100 cc         1 M1W      -0.184200
     21 C21         -5.1440    -2.4950    -0.0890 cd         1 M1W      -0.110100
     22 N22         -6.0120    -1.4540     0.0300 na         1 M1W      -0.170400
     23 H11C         9.0590    -0.0540     0.9660 h1         1 M1W       0.030367
     24 H12C         9.3440    -1.7300     0.4630 h1         1 M1W       0.030367
     25 H13C         9.1030    -0.4650    -0.7570 h1         1 M1W       0.030367
     26 H31C         6.7930     0.7870     0.7360 h1         1 M1W       0.024200
     27 H32C         6.8460     0.4110    -0.9880 h1         1 M1W       0.024200
     28 H41C         4.9800    -1.2140    -0.7000 hc         1 M1W       0.061200
     29 H42C         4.9260    -0.8590     1.0280 hc         1 M1W       0.061200
     30 H51C         4.3840     1.5180     0.5390 h1         1 M1W       0.056700
     31 H52C         4.4670     1.1970    -1.1890 h1         1 M1W       0.056700
     32 H6           2.6680    -0.6690    -0.2920 hn         1 M1W       0.336500
     33 H15         -2.7550     2.5610     0.1980 ha         1 M1W       0.156000
     34 H16         -5.1500     3.0590     0.3450 ha         1 M1W       0.135000
     35 H17         -6.8320     1.2390     0.2780 ha         1 M1W       0.133000
     36 H22         -7.0140    -1.5380     0.0680 hn         1 M1W       0.299700
     37 H20         -2.9730    -2.6350    -0.1970 ha         1 M1W       0.172000
     38 H21         -5.5080    -3.5080    -0.1510 h4         1 M1W       0.163000
@<TRIPOS>BOND
     1     1     2 1   
     2     1    23 1   
     3     1    24 1   
     4     1    25 1   
     5     2     3 1   
     6     3     4 1   
     7     3    26 1   
     8     3    27 1   
     9     4     5 1   
    10     4    28 1   
    11     4    29 1   
    12     5     6 1   
    13     5    30 1   
    14     5    31 1   
    15     6     7 1   
    16     6    32 1   
    17     7     8 2   
    18     7     9 1   
    19     9    10 2   
    20     9    13 1   
    21    10    11 1   
    22    11    12 2   
    23    11    14 1   
    24    12    13 1   
    25    14    15 ar  
    26    14    19 ar  
    27    15    16 ar  
    28    15    33 1   
    29    16    17 ar  
    30    16    34 1   
    31    17    18 ar  
    32    17    35 1   
    33    18    19 ar  
    34    18    22 1   
    35    19    20 1   
    36    20    21 2   
    37    20    37 1   
    38    21    22 1   
    39    21    38 1   
    40    22    36 1   
@<TRIPOS>SUBSTRUCTURE
     1 M1W         1 TEMP              0 ****  ****    0 ROOT
