@<TRIPOS>MOLECULE
M1W
   38    40     1     0     0
SMALL
No Charge or Current Charge


@<TRIPOS>ATOM
      1 C1           8.9220    -1.0050     0.0080 c3         1 M1W       0.146900
      2 O2           7.4980    -1.2060     0.0120 os         1 M1W      -0.454000
      3 C3           6.7270     0.0060     0.0030 c3         1 M1W       0.162600
      4 C4           5.2390    -0.3890     0.0090 c3         1 M1W      -0.101400
      5 C5           4.3040     0.8340    -0.0010 c3         1 M1W       0.104000
      6 N6           2.8940     0.4380     0.0050 ns         1 M1W      -0.492900
      7 C7           1.8320     1.3320    -0.0030 c          1 M1W       0.537600
      8 O8           2.0320     2.5440    -0.0160 o          1 M1W      -0.544100
      9 C9           0.4660     0.6870     0.0050 cc         1 M1W       0.416500
     10 N10         -0.7150     1.2920     0.0000 nd         1 M1W      -0.658000
     11 C11         -1.6100     0.2430     0.0130 cd         1 M1W       0.621500
     12 N12         -1.0340    -0.9500     0.0240 nc         1 M1W      -0.364300
     13 O13          0.3480    -0.6730     0.0200 os         1 M1W      -0.098700
     14 C14         -3.0820     0.4590     0.0120 ca         1 M1W      -0.111500
     15 C15         -3.6030     1.7820    -0.0010 ca         1 M1W      -0.079000
     16 C16         -4.9950     2.0250    -0.0020 ca         1 M1W      -0.111000
     17 C17         -5.9040     0.9530     0.0110 ca         1 M1W      -0.100000
     18 C18         -5.3890    -0.3470     0.0240 ca         1 M1W      -0.065200
     19 C19         -4.0370    -0.5900     0.0250 ca         1 M1W      -0.062800
     20 C20         -3.8970    -2.0230     0.0400 cc         1 M1W      -0.234200
     21 C21         -5.1710    -2.5740     0.0480 cd         1 M1W      -0.160100
     22 N22         -6.1180    -1.5260     0.0380 na         1 M1W      -0.220700
     23 H11C         9.2380    -0.4380     0.8930 h1         1 M1W       0.030367
     24 H12C         9.4430    -1.9710     0.0160 h1         1 M1W       0.030367
     25 H13C         9.2360    -0.4550    -0.8880 h1         1 M1W       0.030367
     26 H31C         6.9500     0.6160     0.8880 h1         1 M1W       0.024200
     27 H32C         6.9470     0.5990    -0.8950 h1         1 M1W       0.024200
     28 H41C         5.0300    -1.0110    -0.8700 hc         1 M1W       0.061200
     29 H42C         5.0320    -0.9950     0.8990 hc         1 M1W       0.061200
     30 H51C         4.5020     1.4550     0.8830 h1         1 M1W       0.056700
     31 H52C         4.4990     1.4390    -0.8970 h1         1 M1W       0.056700
     32 H6           2.6680    -0.5520     0.0150 hn         1 M1W       0.336500
     33 H15         -2.9300     2.6370    -0.0120 ha         1 M1W       0.138000
     34 H16         -5.3650     3.0480    -0.0130 ha         1 M1W       0.117000
     35 H17         -6.9770     1.1320     0.0100 ha         1 M1W       0.115000
     36 H22         -7.1300    -1.6170     0.0400 hn         1 M1W       0.350000
     37 H20         -2.9790    -2.6060     0.0450 ha         1 M1W       0.222000
     38 H21         -5.4700    -3.6210     0.0600 h4         1 M1W       0.213000
@<TRIPOS>BOND
     1     1     2 1   
     2     1    23 1   
     3     1    24 1   
     4     1    25 1   
     5     2     3 1   
     6     3     4 1   
     7     3    26 1   
     8     3    27 1   
     9     4     5 1   
    10     4    28 1   
    11     4    29 1   
    12     5     6 1   
    13     5    30 1   
    14     5    31 1   
    15     6     7 1   
    16     6    32 1   
    17     7     8 2   
    18     7     9 1   
    19     9    10 2   
    20     9    13 1   
    21    10    11 1   
    22    11    12 2   
    23    11    14 1   
    24    12    13 1   
    25    14    15 ar  
    26    14    19 ar  
    27    15    16 ar  
    28    15    33 1   
    29    16    17 ar  
    30    16    34 1   
    31    17    18 ar  
    32    17    35 1   
    33    18    19 ar  
    34    18    22 1   
    35    19    20 1   
    36    20    21 2   
    37    20    37 1   
    38    21    22 1   
    39    21    38 1   
    40    22    36 1   
@<TRIPOS>SUBSTRUCTURE
     1 M1W         1 TEMP              0 ****  ****    0 ROOT
