@<TRIPOS>MOLECULE
M1Z
   24    25     1     0     0
SMALL
bcc


@<TRIPOS>ATOM
      1 CAC          0.5810     1.2750    -0.0520 c6         1 M1Z      -0.277700
      2 CAD         -3.6600     0.7710     0.3650 c5         1 M1Z      -0.095400
      3 CAE         -3.7100    -0.6290    -0.2360 c5         1 M1Z      -0.095400
      4 CAF         -2.2650     1.2540    -0.0070 c5         1 M1Z       0.219300
      5 CAG         -2.3100    -1.1740     0.0220 c5         1 M1Z       0.219300
      6 CAJ         -0.1540    -0.0300     0.0010 c2         1 M1Z       0.727200
      7 CAK          2.0730     1.1450    -0.1450 c          1 M1Z       0.724500
      8 CAL          1.7800    -1.2920     0.0160 c          1 M1Z       0.875900
      9 NAH          0.4290    -1.1990     0.0470 ne         1 M1Z      -0.771100
     10 NAI          2.5460    -0.1250    -0.0890 ns         1 M1Z      -0.633500
     11 NAM         -1.4720     0.0250     0.0060 nh         1 M1Z      -0.730600
     12 OAA          2.8000     2.1100    -0.2520 o          1 M1Z      -0.606500
     13 OAB          2.3660    -2.3570     0.0720 o          1 M1Z      -0.589500
     14 H1           0.2350     1.8710    -0.9000 hc         1 M1Z       0.099200
     15 H2           0.3540     1.8660     0.8410 hc         1 M1Z       0.099200
     16 H4          -3.7640     0.7260     1.4510 hc         1 M1Z       0.061200
     17 H5          -4.4800    -1.2600     0.2040 hc         1 M1Z       0.061200
     18 H6          -3.8980    -0.5710    -1.3100 hc         1 M1Z       0.061200
     19 H7          -2.2530     1.7020    -1.0040 h1         1 M1Z       0.063450
     20 H8          -1.8700     1.9860     0.6970 h1         1 M1Z       0.063450
     21 H9          -2.2380    -1.6630     0.9970 h1         1 M1Z       0.063450
     22 H10         -1.9780    -1.8850    -0.7320 h1         1 M1Z       0.063450
     23 H11          3.5500    -0.2500    -0.1310 hn         1 M1Z       0.337500
     24 H3          -4.4330     1.4350    -0.0190 hc         1 M1Z       0.061200
@<TRIPOS>BOND
     1     1     6 1   
     2     1     7 1   
     3     1    14 1   
     4     1    15 1   
     5     2     3 1   
     6     2     4 1   
     7     2    16 1   
     8     2    24 1   
     9     3     5 1   
    10     3    17 1   
    11     3    18 1   
    12     4    11 1   
    13     4    19 1   
    14     4    20 1   
    15     5    11 1   
    16     5    21 1   
    17     5    22 1   
    18     6     9 2   
    19     6    11 1   
    20     7    10 1   
    21     7    12 2   
    22     8     9 1   
    23     8    10 1   
    24     8    13 2   
    25    10    23 1   
@<TRIPOS>SUBSTRUCTURE
     1 M1Z         1 TEMP              0 ****  ****    0 ROOT
