@<TRIPOS>MOLECULE
M1Z
   24    25     1     0     0
SMALL
No Charge or Current Charge


@<TRIPOS>ATOM
      1 CAC          0.6370     1.3230     0.0510 c6         1 M1Z      -0.277700
      2 CAD         -3.6770     0.7060     0.4170 c5         1 M1Z      -0.095400
      3 CAE         -3.6980    -0.6020    -0.4250 c5         1 M1Z      -0.095400
      4 CAF         -2.2830     1.3050     0.0820 c5         1 M1Z       0.219300
      5 CAG         -2.2930    -1.1850    -0.1330 c5         1 M1Z       0.219300
      6 CAJ         -0.1220     0.0360     0.0070 c2         1 M1Z       0.727200
      7 CAK          1.9900     1.0350    -0.5140 c          1 M1Z       0.582000
      8 CAL          1.8410    -1.1970     0.3940 c          1 M1Z       0.733400
      9 NAH          0.4650    -1.1000     0.2090 ne         1 M1Z      -0.771100
     10 NAI          2.5220    -0.1160    -0.0580 ns         1 M1Z      -0.499500
     11 NAM         -1.5020     0.0660    -0.1570 nh         1 M1Z      -0.730600
     12 OAA          2.5280     1.7140    -1.3710 o          1 M1Z      -0.531000
     13 OAB          2.4090    -2.1720     0.8420 o          1 M1Z      -0.514000
     14 H1           0.1690     2.1500    -0.4930 hc         1 M1Z       0.099200
     15 H2           0.7530     1.5610     1.1150 hc         1 M1Z       0.099200
     16 H4          -3.7590     0.4830     1.4880 hc         1 M1Z       0.061200
     17 H5          -4.5020    -1.2860    -0.1310 hc         1 M1Z       0.061200
     18 H6          -3.8230    -0.3870    -1.4930 hc         1 M1Z       0.061200
     19 H7          -2.3080     1.9400    -0.8140 h1         1 M1Z       0.063450
     20 H8          -1.9040     1.9000     0.9250 h1         1 M1Z       0.063450
     21 H9          -2.2470    -1.6740     0.8500 h1         1 M1Z       0.063450
     22 H10         -1.9790    -1.9060    -0.9020 h1         1 M1Z       0.063450
     23 H11          3.5080    -0.2540    -0.2090 hn         1 M1Z       0.337500
     24 H3          -4.4950     1.3900     0.1640 hc         1 M1Z       0.061200
@<TRIPOS>BOND
     1     1     6 1   
     2     1     7 1   
     3     1    14 1   
     4     1    15 1   
     5     2     3 1   
     6     2     4 1   
     7     2    16 1   
     8     2    24 1   
     9     3     5 1   
    10     3    17 1   
    11     3    18 1   
    12     4    11 1   
    13     4    19 1   
    14     4    20 1   
    15     5    11 1   
    16     5    21 1   
    17     5    22 1   
    18     6     9 2   
    19     6    11 1   
    20     7    10 1   
    21     7    12 2   
    22     8     9 1   
    23     8    10 1   
    24     8    13 2   
    25    10    23 1   
@<TRIPOS>SUBSTRUCTURE
     1 M1Z         1 TEMP              0 ****  ****    0 ROOT
