@<TRIPOS>MOLECULE
M21
   41    40     1     0     0
SMALL
bcc


@<TRIPOS>ATOM
      1 C1          -7.7820     1.6440    -0.1920 c3         1 M21      -0.059900
      2 C2          -7.5080     0.4490     0.6600 c2         1 M21      -0.153200
      3 C3          -6.3890    -0.2860     0.6950 ce         1 M21      -0.137000
      4 C4          -5.1840    -0.0710    -0.0890 ce         1 M21      -0.134000
      5 C5          -4.1050    -0.8570    -0.0110 c2         1 M21      -0.158200
      6 C6          -2.8420    -0.6670    -0.7840 c3         1 M21      -0.042200
      7 C7          -1.6180    -0.5280     0.1240 c3         1 M21      -0.072400
      8 C8          -0.3170    -0.3850    -0.6540 c3         1 M21      -0.075400
      9 C9           0.9080    -0.2890     0.2470 c3         1 M21      -0.074400
     10 C10          2.2130    -0.1400    -0.5250 c3         1 M21      -0.074400
     11 C11          3.4390    -0.0670     0.3770 c3         1 M21      -0.074400
     12 C12          4.7440     0.0730    -0.3960 c3         1 M21      -0.074400
     13 C13          5.9680     0.1370     0.5090 c3         1 M21      -0.082400
     14 C14          7.2550     0.2670    -0.2810 c3         1 M21       0.141400
     15 O            8.3460     0.3260     0.6140 oh         1 M21      -0.599800
     16 H11C        -6.9920     1.8550    -0.9100 hc         1 M21       0.039700
     17 H12C        -8.7120     1.5120    -0.7490 hc         1 M21       0.039700
     18 H13C        -7.9190     2.5370     0.4240 hc         1 M21       0.039700
     19 H2          -8.3160     0.1560     1.3230 ha         1 M21       0.116000
     20 H3          -6.3610    -1.1300     1.3790 ha         1 M21       0.117000
     21 H4          -5.1650     0.7730    -0.7720 ha         1 M21       0.119000
     22 H5          -4.1200    -1.7030     0.6740 ha         1 M21       0.116000
     23 H61C        -2.6870    -1.5290    -1.4430 hc         1 M21       0.044700
     24 H62C        -2.9250     0.2080    -1.4340 hc         1 M21       0.044700
     25 H71C        -1.7500     0.3370     0.7810 hc         1 M21       0.040700
     26 H72C        -1.5560    -1.4030     0.7810 hc         1 M21       0.040700
     27 H81C        -0.2020    -1.2390    -1.3310 hc         1 M21       0.037200
     28 H82C        -0.3700     0.5030    -1.2930 hc         1 M21       0.037200
     29 H91C         0.7910     0.5590     0.9300 hc         1 M21       0.038200
     30 H92C         0.9620    -1.1820     0.8800 hc         1 M21       0.038200
     31 H101         2.3240    -0.9820    -1.2170 hc         1 M21       0.036700
     32 H102         2.1670     0.7600    -1.1490 hc         1 M21       0.036700
     33 H111         3.3320     0.7780     1.0670 hc         1 M21       0.039700
     34 H112         3.4820    -0.9650     1.0030 hc         1 M21       0.039700
     35 H121         4.8460    -0.7700    -1.0880 hc         1 M21       0.036700
     36 H122         4.7020     0.9730    -1.0190 hc         1 M21       0.036700
     37 H131         5.8730     0.9850     1.1940 hc         1 M21       0.052200
     38 H132         6.0120    -0.7650     1.1290 hc         1 M21       0.052200
     39 H141         7.3460    -0.5880    -0.9650 h1         1 M21       0.015200
     40 H142         7.2040     1.1670    -0.9090 h1         1 M21       0.015200
     41 H            9.1550     0.3760     0.0980 ho         1 M21       0.403000
@<TRIPOS>BOND
     1     1     2 1   
     2     1    16 1   
     3     1    17 1   
     4     1    18 1   
     5     2     3 2   
     6     2    19 1   
     7     3     4 1   
     8     3    20 1   
     9     4     5 2   
    10     4    21 1   
    11     5     6 1   
    12     5    22 1   
    13     6     7 1   
    14     6    23 1   
    15     6    24 1   
    16     7     8 1   
    17     7    25 1   
    18     7    26 1   
    19     8     9 1   
    20     8    27 1   
    21     8    28 1   
    22     9    10 1   
    23     9    29 1   
    24     9    30 1   
    25    10    11 1   
    26    10    31 1   
    27    10    32 1   
    28    11    12 1   
    29    11    33 1   
    30    11    34 1   
    31    12    13 1   
    32    12    35 1   
    33    12    36 1   
    34    13    14 1   
    35    13    37 1   
    36    13    38 1   
    37    14    15 1   
    38    14    39 1   
    39    14    40 1   
    40    15    41 1   
@<TRIPOS>SUBSTRUCTURE
     1 M21         1 TEMP              0 ****  ****    0 ROOT
