@<TRIPOS>MOLECULE
M21
   41    40     1     0     0
SMALL
No Charge or Current Charge


@<TRIPOS>ATOM
      1 C1          -6.8880     2.1820     0.4600 c3         1 M21      -0.059900
      2 C2          -7.1590     0.7300     0.7990 c2         1 M21      -0.203200
      3 C3          -6.3600    -0.3260     0.5280 ce         1 M21      -0.187000
      4 C4          -5.0640    -0.2370    -0.1570 ce         1 M21      -0.184000
      5 C5          -4.2870    -1.3100    -0.4100 c2         1 M21      -0.208200
      6 C6          -2.9450    -1.2750    -1.1090 c3         1 M21      -0.042200
      7 C7          -1.8020    -0.8530    -0.1620 c3         1 M21      -0.072400
      8 C8          -0.4220    -0.8150    -0.8540 c3         1 M21      -0.075400
      9 C9           0.7190    -0.3920     0.0970 c3         1 M21      -0.074400
     10 C10          2.0990    -0.3530    -0.5950 c3         1 M21      -0.074400
     11 C11          3.2410     0.0700     0.3560 c3         1 M21      -0.074400
     12 C12          4.6210     0.1080    -0.3370 c3         1 M21      -0.074400
     13 C13          5.7630     0.5310     0.6140 c3         1 M21      -0.082400
     14 C14          7.1400     0.5680    -0.0800 c3         1 M21       0.164600
     15 O            8.1440     0.9660     0.8590 oh         1 M21      -0.662000
     16 H11C        -6.7810     2.3220    -0.6230 hc         1 M21       0.039700
     17 H12C        -7.7080     2.8260     0.7990 hc         1 M21       0.039700
     18 H13C        -5.9670     2.5350     0.9390 hc         1 M21       0.039700
     19 H2          -8.1080     0.5680     1.3140 ha         1 M21       0.166000
     20 H3          -6.6790    -1.3260     0.8310 ha         1 M21       0.167000
     21 H4          -4.7300     0.7550    -0.4680 ha         1 M21       0.169000
     22 H5          -4.6060    -2.3090    -0.1040 ha         1 M21       0.166000
     23 H61C        -2.7180    -2.2640    -1.5270 hc         1 M21       0.044700
     24 H62C        -2.9840    -0.5810    -1.9590 hc         1 M21       0.044700
     25 H71C        -2.0260     0.1380     0.2520 hc         1 M21       0.040700
     26 H72C        -1.7630    -1.5510     0.6840 hc         1 M21       0.040700
     27 H81C        -0.1980    -1.8070    -1.2660 hc         1 M21       0.037200
     28 H82C        -0.4630    -0.1180    -1.7000 hc         1 M21       0.037200
     29 H91C         0.4950     0.6000     0.5090 hc         1 M21       0.038200
     30 H92C         0.7600    -1.0890     0.9430 hc         1 M21       0.038200
     31 H101         2.3230    -1.3450    -1.0080 hc         1 M21       0.036700
     32 H102         2.0590     0.3440    -1.4410 hc         1 M21       0.036700
     33 H111         3.0170     1.0620     0.7680 hc         1 M21       0.039700
     34 H112         3.2810    -0.6270     1.2020 hc         1 M21       0.039700
     35 H121         4.8450    -0.8840    -0.7490 hc         1 M21       0.036700
     36 H122         4.5800     0.8060    -1.1830 hc         1 M21       0.036700
     37 H131         5.5420     1.5240     1.0250 hc         1 M21       0.052200
     38 H132         5.8060    -0.1660     1.4590 hc         1 M21       0.052200
     39 H141         7.3700    -0.4270    -0.4830 h1         1 M21       0.015200
     40 H142         7.1040     1.2750    -0.9200 h1         1 M21       0.015200
     41 H            8.9990     0.9760     0.3740 ho         1 M21       0.442000
@<TRIPOS>BOND
     1     1     2 1   
     2     1    16 1   
     3     1    17 1   
     4     1    18 1   
     5     2     3 2   
     6     2    19 1   
     7     3     4 1   
     8     3    20 1   
     9     4     5 2   
    10     4    21 1   
    11     5     6 1   
    12     5    22 1   
    13     6     7 1   
    14     6    23 1   
    15     6    24 1   
    16     7     8 1   
    17     7    25 1   
    18     7    26 1   
    19     8     9 1   
    20     8    27 1   
    21     8    28 1   
    22     9    10 1   
    23     9    29 1   
    24     9    30 1   
    25    10    11 1   
    26    10    31 1   
    27    10    32 1   
    28    11    12 1   
    29    11    33 1   
    30    11    34 1   
    31    12    13 1   
    32    12    35 1   
    33    12    36 1   
    34    13    14 1   
    35    13    37 1   
    36    13    38 1   
    37    14    15 1   
    38    14    39 1   
    39    14    40 1   
    40    15    41 1   
@<TRIPOS>SUBSTRUCTURE
     1 M21         1 TEMP              0 ****  ****    0 ROOT
