@<TRIPOS>MOLECULE
M22
   41    44     1     0     0
SMALL
abcg2


@<TRIPOS>ATOM
      1 C           10.5910    12.4080    15.6980 ca         1 M22       0.162100
      2 C1          11.5830    12.8140    14.8110 ca         1 M22       0.062000
      3 C2          11.2270    13.3660    13.5860 ca         1 M22      -0.044000
      4 C3           9.8940    13.5210    13.2460 ca         1 M22      -0.155000
      5 C4           8.8990    13.1160    14.1390 ca         1 M22       0.174100
      6 C5           9.2490    12.5560    15.3650 ca         1 M22      -0.248000
      7 C6           9.5950    12.9220    18.4780 ca         1 M22      -0.117000
      8 C7          10.1370    11.7590    17.9440 ca         1 M22       0.120100
      9 C8           9.9000    10.5210    18.5170 ca         1 M22      -0.075000
     10 C9           9.1020    10.4590    19.6610 ca         1 M22       0.012000
     11 C10          8.5400    11.6090    20.2200 ca         1 M22      -0.081000
     12 C11          8.7960    12.8250    19.6080 ca         1 M22       0.126000
     13 O           10.9900    11.8060    16.8660 os         1 M22      -0.238200
     14 CL           8.0960    14.2750    20.2740 cl         1 M22      -0.188000
     15 O12          7.6160    13.3020    13.7290 os         1 M22      -0.332100
     16 C13          6.5420    12.9340    14.6040 c3         1 M22       0.160300
     17 C14          6.4130    11.4570    14.8110 cc         1 M22       0.299900
     18 N            6.4590    10.6070    13.8010 nd         1 M22      -0.477100
     19 N15          6.3240     9.3680    14.3260 na         1 M22      -0.068400
     20 C16          6.2330    10.7620    16.0460 ca         1 M22      -0.225900
     21 C17          6.1820     9.3960    15.6790 ca         1 M22      -0.030200
     22 C18          6.0250     8.3760    16.6250 ca         1 M22      -0.128000
     23 C19          5.9160     8.7630    17.9460 ca         1 M22      -0.070000
     24 C20          5.9640    10.1210    18.3300 ca         1 M22      -0.145000
     25 C21          6.1260    11.1240    17.3980 ca         1 M22      -0.047000
     26 CL2         13.2660    12.6210    15.2290 cl         1 M22      -0.185000
     27 C23          8.8250     9.1900    20.2540 cg         1 M22       0.322000
     28 N24          8.5930     8.1660    20.7290 n1         1 M22      -0.439000
     29 H2          12.0030    13.6790    12.9010 ha         1 M22       0.135000
     30 H3           9.6130    13.9540    12.2960 ha         1 M22       0.138000
     31 H5           8.5020    12.2170    16.0620 ha         1 M22       0.138000
     32 H8          10.3240     9.6290    18.0800 ha         1 M22       0.150000
     33 H10          7.9130    11.5480    21.0960 ha         1 M22       0.143000
     34 H13          6.6540    13.4340    15.5690 h1         1 M22       0.069700
     35 H13A         5.6540    13.3360    14.1170 h1         1 M22       0.069700
     36 HN15         6.3430     8.5650    13.7190 hn         1 M22       0.381000
     37 H18          5.9910     7.3350    16.3320 ha         1 M22       0.124000
     38 H19          5.7960     8.0060    18.7110 ha         1 M22       0.122000
     39 H20          5.8810    10.3710    19.3790 ha         1 M22       0.116000
     40 H21          6.1740    12.1620    17.7030 ha         1 M22       0.118000
     41 H6           9.7910    13.8800    18.0180 ha         1 M22       0.150000
@<TRIPOS>BOND
     1     1     2 ar  
     2     1     6 ar  
     3     1    13 1   
     4     2     3 ar  
     5     2    26 1   
     6     3     4 ar  
     7     3    29 1   
     8     4     5 ar  
     9     4    30 1   
    10     5     6 ar  
    11     5    15 1   
    12     6    31 1   
    13     7     8 ar  
    14     7    12 ar  
    15     7    41 1   
    16     8     9 ar  
    17     8    13 1   
    18     9    10 ar  
    19     9    32 1   
    20    10    11 ar  
    21    10    27 1   
    22    11    12 ar  
    23    11    33 1   
    24    12    14 1   
    25    15    16 1   
    26    16    17 1   
    27    16    34 1   
    28    16    35 1   
    29    17    18 2   
    30    17    20 1   
    31    18    19 1   
    32    19    21 1   
    33    19    36 1   
    34    20    21 ar  
    35    20    25 ar  
    36    21    22 ar  
    37    22    23 ar  
    38    22    37 1   
    39    23    24 ar  
    40    23    38 1   
    41    24    25 ar  
    42    24    39 1   
    43    25    40 1   
    44    27    28 3   
@<TRIPOS>SUBSTRUCTURE
     1 M22         1 TEMP              0 ****  ****    0 ROOT
