@<TRIPOS>MOLECULE
M22
   41    44     1     0     0
SMALL
No Charge or Current Charge


@<TRIPOS>ATOM
      1 C           10.6370    12.4200    15.6910 ca         1 M22       0.162100
      2 C1          11.6300    12.8090    14.7680 ca         1 M22       0.062000
      3 C2          11.2610    13.3740    13.5360 ca         1 M22      -0.044000
      4 C3           9.9020    13.5410    13.2190 ca         1 M22      -0.155000
      5 C4           8.9050    13.1500    14.1270 ca         1 M22       0.174100
      6 C5           9.2750    12.5940    15.3690 ca         1 M22      -0.248000
      7 C6           9.5970    12.8850    18.5290 ca         1 M22      -0.117000
      8 C7          10.1890    11.7360    17.9750 ca         1 M22       0.120100
      9 C8           9.9490    10.4740    18.5410 ca         1 M22      -0.075000
     10 C9           9.1030    10.3520    19.6610 ca         1 M22       0.012000
     11 C10          8.5050    11.5040    20.2110 ca         1 M22      -0.081000
     12 C11          8.7520    12.7640    19.6420 ca         1 M22       0.126000
     13 O           11.0190    11.8340    16.8830 os         1 M22      -0.238200
     14 Cl           7.9950    14.1970    20.3250 cl         1 M22      -0.188000
     15 O12          7.5890    13.3330    13.7490 os         1 M22      -0.332100
     16 C13          6.4620    12.9530    14.5770 c3         1 M22       0.160300
     17 C14          6.3860    11.4460    14.7470 cc         1 M22       0.299900
     18 N            6.4680    10.5770    13.7210 nd         1 M22      -0.477100
     19 N15          6.3720     9.3250    14.3430 na         1 M22      -0.068400
     20 C16          6.2220    10.7570    16.0080 ca         1 M22      -0.225900
     21 C17          6.2250     9.4320    15.7080 ca         1 M22      -0.030200
     22 C18          6.0860     8.4420    16.6890 ca         1 M22      -0.128000
     23 C19          5.9320     8.8680    18.0270 ca         1 M22      -0.070000
     24 C20          5.9200    10.2490    18.3410 ca         1 M22      -0.145000
     25 C21          6.0710    11.2190    17.3250 ca         1 M22      -0.047000
     26 Cl2         13.3420    12.5940    15.1390 cl         1 M22      -0.185000
     27 C23          8.8470     9.0600    20.2360 cg         1 M22       0.322000
     28 N24          8.6300     8.0130    20.7070 n1         1 M22      -0.439000
     29 H2          12.0280    13.6750    12.8260 ha         1 M22       0.135000
     30 H3           9.6190    13.9730    12.2630 ha         1 M22       0.138000
     31 H5           8.5210    12.2820    16.0790 ha         1 M22       0.138000
     32 H8          10.4150     9.5940    18.1050 ha         1 M22       0.150000
     33 H10          7.8480    11.4240    21.0740 ha         1 M22       0.143000
     34 H13          6.5270    13.4360    15.5590 h1         1 M22       0.069700
     35 H13A         5.5280    13.2890    14.1110 h1         1 M22       0.069700
     36 HN15         6.4060     8.4590    13.8070 hn         1 M22       0.381000
     37 H18          6.0920     7.3850    16.4320 ha         1 M22       0.124000
     38 H19          5.8180     8.1310    18.8190 ha         1 M22       0.122000
     39 H20          5.7930    10.5660    19.3730 ha         1 M22       0.116000
     40 H21          6.0640    12.2810    17.5630 ha         1 M22       0.118000
     41 H6           9.7900    13.8630    18.0970 ha         1 M22       0.150000
@<TRIPOS>BOND
     1     1     2 ar  
     2     1     6 ar  
     3     1    13 1   
     4     2     3 ar  
     5     2    26 1   
     6     3     4 ar  
     7     3    29 1   
     8     4     5 ar  
     9     4    30 1   
    10     5     6 ar  
    11     5    15 1   
    12     6    31 1   
    13     7     8 ar  
    14     7    12 ar  
    15     7    41 1   
    16     8     9 ar  
    17     8    13 1   
    18     9    10 ar  
    19     9    32 1   
    20    10    11 ar  
    21    10    27 1   
    22    11    12 ar  
    23    11    33 1   
    24    12    14 1   
    25    15    16 1   
    26    16    17 1   
    27    16    34 1   
    28    16    35 1   
    29    17    18 2   
    30    17    20 1   
    31    18    19 1   
    32    19    21 1   
    33    19    36 1   
    34    20    21 ar  
    35    20    25 ar  
    36    21    22 ar  
    37    22    23 ar  
    38    22    37 1   
    39    23    24 ar  
    40    23    38 1   
    41    24    25 ar  
    42    24    39 1   
    43    25    40 1   
    44    27    28 3   
@<TRIPOS>SUBSTRUCTURE
     1 M22         1 TEMP              0 ****  ****    0 ROOT
