@<TRIPOS>MOLECULE
M23
   40    42     1     0     0
SMALL
bcc


@<TRIPOS>ATOM
      1 BR           4.3290    -1.9510    -0.4000 br         1 M23      -0.099100
      2 C1          -4.6420    -0.2870    -0.7660 ca         1 M23       0.770200
      3 N2          -5.2850    -1.0320     0.1070 nb         1 M23      -0.871000
      4 C3          -4.5780    -1.5700     1.1220 ca         1 M23       0.943900
      5 N4          -3.2870    -1.4400     1.3430 nb         1 M23      -0.816000
      6 C5          -2.6080    -0.6750     0.4570 ca         1 M23       0.492600
      7 C6          -3.2250    -0.0520    -0.6430 ca         1 M23      -0.346600
      8 C7          -2.4620     0.7260    -1.5290 ca         1 M23      -0.080000
      9 C8          -1.1120     0.9180    -1.3510 ca         1 M23      -0.087300
     10 C9          -0.4920     0.2950    -0.2380 cp         1 M23       0.016000
     11 C10         -1.2220    -0.4810     0.6290 ca         1 M23      -0.187300
     12 N12         -5.3040    -2.2870     2.0120 nv         1 M23      -0.946500
     13 C13         -0.3210     1.7490    -2.3180 c3         1 M23      -0.040800
     14 C14          0.9670     0.4440    -0.0090 cp         1 M23      -0.082000
     15 C15          1.4930     1.6510     0.4750 ca         1 M23       0.175100
     16 C16          2.8640     1.7700     0.6840 ca         1 M23      -0.226000
     17 C17          3.7110     0.7010     0.4220 ca         1 M23      -0.058000
     18 C18          3.1850    -0.4890    -0.0450 ca         1 M23      -0.062900
     19 C19          1.8190    -0.6210    -0.2580 ca         1 M23      -0.053000
     20 C22          1.0620     3.8920     1.1690 c3         1 M23       0.139400
     21 C23         -0.1340     4.8040     1.2840 c3         1 M23      -0.095100
     22 H7          -2.9310     1.1950    -2.3860 ha         1 M23       0.116000
     23 H10         -0.7390    -0.9550     1.4750 ha         1 M23       0.153000
     24 HN11        -6.3280     0.0360    -1.8470 hn         1 M23       0.443300
     25 HN1A        -4.9290     0.7810    -2.5050 hn         1 M23       0.443300
     26 HN12        -6.2200    -2.5950     1.7370 hn         1 M23       0.431800
     27 HN1B        -4.8080    -2.8810     2.6550 hn         1 M23       0.431800
     28 H13         -0.0400     2.7100    -1.8830 hc         1 M23       0.041367
     29 H13A         0.6020     1.2520    -2.6180 hc         1 M23       0.041367
     30 H13B        -0.8970     1.9540    -3.2190 hc         1 M23       0.041367
     31 H16          3.2980     2.6860     1.0590 ha         1 M23       0.139000
     32 H17          4.7730     0.8170     0.5910 ha         1 M23       0.145000
     33 H19          1.4020    -1.5480    -0.6300 ha         1 M23       0.154000
     34 H22          1.5610     3.7870     2.1380 h1         1 M23       0.034700
     35 H22A         1.7910     4.3050     0.4630 h1         1 M23       0.034700
     36 H23         -0.6180     4.9490     0.3180 hc         1 M23       0.049033
     37 H23A        -0.8700     4.4110     1.9860 hc         1 M23       0.049033
     38 H23B         0.1890     5.7790     1.6480 hc         1 M23       0.049033
     39 O21          0.6040     2.6240     0.7160 os         1 M23      -0.312900
     40 N11         -5.3490     0.2490    -1.7650 nv         1 M23      -0.971500
@<TRIPOS>BOND
     1     1    18 1   
     2     2     3 ar  
     3     2     7 ar  
     4     2    40 1   
     5     3     4 ar  
     6     4     5 ar  
     7     4    12 1   
     8     5     6 ar  
     9     6     7 ar  
    10     6    11 ar  
    11     7     8 ar  
    12     8     9 ar  
    13     8    22 1   
    14     9    10 ar  
    15     9    13 1   
    16    10    11 ar  
    17    10    14 1   
    18    11    23 1   
    19    12    26 1   
    20    12    27 1   
    21    13    28 1   
    22    13    29 1   
    23    13    30 1   
    24    14    15 ar  
    25    14    19 ar  
    26    15    16 ar  
    27    15    39 1   
    28    16    17 ar  
    29    16    31 1   
    30    17    18 ar  
    31    17    32 1   
    32    18    19 ar  
    33    19    33 1   
    34    20    21 1   
    35    20    34 1   
    36    20    35 1   
    37    20    39 1   
    38    21    36 1   
    39    21    37 1   
    40    21    38 1   
    41    24    40 1   
    42    25    40 1   
@<TRIPOS>SUBSTRUCTURE
     1 M23         1 TEMP              0 ****  ****    0 ROOT
