@<TRIPOS>MOLECULE
M23
   40    42     1     0     0
SMALL
No Charge or Current Charge


@<TRIPOS>ATOM
      1 Br           4.3490    -2.0870    -0.2760 br         1 M23      -0.099100
      2 C1          -4.6670    -0.2520    -0.7230 ca         1 M23       0.441900
      3 N2          -5.3560    -1.0440     0.1020 nb         1 M23      -0.345000
      4 C3          -4.6410    -1.6310     1.0630 ca         1 M23       0.417900
      5 N4          -3.3260    -1.5240     1.2930 nb         1 M23      -0.290000
      6 C5          -2.6250    -0.7250     0.4620 ca         1 M23       0.099000
      7 C6          -3.2760    -0.0460    -0.5930 ca         1 M23      -0.216000
      8 C7          -2.5350     0.7900    -1.4570 ca         1 M23      -0.062000
      9 C8          -1.1470     0.9550    -1.2810 ca         1 M23      -0.087300
     10 C9          -0.4850     0.2860    -0.2150 cp         1 M23       0.016000
     11 C10         -1.2420    -0.5520     0.6340 ca         1 M23      -0.104000
     12 N12         -5.3300    -2.4370     1.9000 nv         1 M23      -1.056900
     13 C13         -0.3920     1.8490    -2.2620 c3         1 M23      -0.040800
     14 C14          0.9820     0.4280     0.0220 cp         1 M23      -0.082000
     15 C15          1.5560     1.6470     0.4710 ca         1 M23       0.175100
     16 C16          2.9480     1.7520     0.6840 ca         1 M23      -0.208000
     17 C17          3.7780     0.6400     0.4580 ca         1 M23      -0.040000
     18 C18          3.2200    -0.5730     0.0250 ca         1 M23      -0.062900
     19 C19          1.8360    -0.6800    -0.1880 ca         1 M23      -0.035000
     20 C22          1.1540     4.0010     1.0960 c3         1 M23       0.162600
     21 C23         -0.0800     4.9100     1.2130 c3         1 M23      -0.095100
     22 H7          -3.0270     1.3160    -2.2710 ha         1 M23       0.098000
     23 H10         -0.7410    -1.0710     1.4470 ha         1 M23       0.135000
     24 HN11        -6.3640    -0.0480    -1.8310 hn         1 M23       0.498500
     25 HN1A        -4.9640     0.6930    -2.5170 hn         1 M23       0.498500
     26 HN12        -6.2650    -2.7250     1.6240 hn         1 M23       0.487000
     27 HN1B        -4.8080    -3.0800     2.4910 hn         1 M23       0.487000
     28 H13         -0.2920     2.8670    -1.8680 hc         1 M23       0.041367
     29 H13A         0.6150     1.4660    -2.4660 hc         1 M23       0.041367
     30 H13B        -0.9100     1.9170    -3.2260 hc         1 M23       0.041367
     31 H16          3.4000     2.6780     1.0270 ha         1 M23       0.121000
     32 H17          4.8500     0.7190     0.6220 ha         1 M23       0.127000
     33 H19          1.4160    -1.6250    -0.5260 ha         1 M23       0.136000
     34 H22          1.6680     3.9550     2.0640 h1         1 M23       0.034700
     35 H22A         1.8420     4.4140     0.3470 h1         1 M23       0.034700
     36 H23         -0.6030     4.9760     0.2520 hc         1 M23       0.049033
     37 H23A        -0.7760     4.5210     1.9660 hc         1 M23       0.049033
     38 H23B         0.2210     5.9210     1.5120 hc         1 M23       0.049033
     39 O21          0.6920     2.7000     0.7000 os         1 M23      -0.336100
     40 N11         -5.4270     0.3210    -1.6930 nv         1 M23      -1.081900
@<TRIPOS>BOND
     1     1    18 1   
     2     2     3 ar  
     3     2     7 ar  
     4     2    40 1   
     5     3     4 ar  
     6     4     5 ar  
     7     4    12 1   
     8     5     6 ar  
     9     6     7 ar  
    10     6    11 ar  
    11     7     8 ar  
    12     8     9 ar  
    13     8    22 1   
    14     9    10 ar  
    15     9    13 1   
    16    10    11 ar  
    17    10    14 1   
    18    11    23 1   
    19    12    26 1   
    20    12    27 1   
    21    13    28 1   
    22    13    29 1   
    23    13    30 1   
    24    14    15 ar  
    25    14    19 ar  
    26    15    16 ar  
    27    15    39 1   
    28    16    17 ar  
    29    16    31 1   
    30    17    18 ar  
    31    17    32 1   
    32    18    19 ar  
    33    19    33 1   
    34    20    21 1   
    35    20    34 1   
    36    20    35 1   
    37    20    39 1   
    38    21    36 1   
    39    21    37 1   
    40    21    38 1   
    41    24    40 1   
    42    25    40 1   
@<TRIPOS>SUBSTRUCTURE
     1 M23         1 TEMP              0 ****  ****    0 ROOT
