@<TRIPOS>MOLECULE
M25
   30    30     1     0     0
SMALL
bcc


@<TRIPOS>ATOM
      1 C1           1.7240    -1.0740     2.5960 ca         1 M25      -0.277500
      2 C2           0.7610    -0.3830     1.8770 ca         1 M25      -0.026500
      3 C3           0.8490    -0.3530     0.4930 ca         1 M25      -0.152000
      4 C4           1.8860    -0.9960    -0.1760 ca         1 M25      -0.020300
      5 C5           2.8440    -1.6790     0.5750 ca         1 M25      -0.152000
      6 C6           2.7720    -1.7230     1.9550 ca         1 M25      -0.026500
      7 S            1.6390    -1.1270     4.3600 sy         1 M25       1.264200
      8 O1           2.9850    -1.1010     4.9150 o          1 M25      -0.613800
      9 O2           0.6920    -0.1090     4.7980 o          1 M25      -0.613800
     10 N1           1.0830    -2.6650     4.6040 n8         1 M25      -0.889700
     11 C7           1.9480    -1.0070    -1.6740 c3         1 M25      -0.070100
     12 C8           1.3050    -2.2710    -2.2600 c3         1 M25       0.110000
     13 N2          -0.0820    -2.4290    -1.8940 ns         1 M25      -0.575900
     14 C9          -1.0820    -1.7640    -2.4980 c          1 M25       0.664100
     15 C10         -2.4600    -2.0060    -1.9350 c3         1 M25      -0.180100
     16 O3          -0.8960    -1.0130    -3.4480 o          1 M25      -0.607100
     17 H2          -0.0510     0.1270     2.3780 ha         1 M25       0.155500
     18 H3           0.1010     0.1890    -0.0710 ha         1 M25       0.138500
     19 H5           3.6630    -2.1780     0.0720 ha         1 M25       0.138500
     20 H6           3.5280    -2.2530     2.5180 ha         1 M25       0.155500
     21 HN11         1.2300    -2.9620     5.5650 hn         1 M25       0.415800
     22 HN12         0.1030    -2.7680     4.3570 hn         1 M25       0.415800
     23 H71          2.9870    -0.9710    -2.0080 hc         1 M25       0.068700
     24 H72          1.4470    -0.1280    -2.0820 hc         1 M25       0.068700
     25 H81          1.3950    -2.2490    -3.3460 h1         1 M25       0.057200
     26 H82          1.8400    -3.1550    -1.9110 h1         1 M25       0.057200
     27 HN2         -0.2960    -3.0010    -1.0950 hn         1 M25       0.314500
     28 H101        -2.8810    -1.0590    -1.5950 hc         1 M25       0.060033
     29 H102        -3.1110    -2.3850    -2.7230 hc         1 M25       0.060033
     30 H103        -2.4770    -2.7070    -1.1030 hc         1 M25       0.060033
@<TRIPOS>BOND
     1     1     2 ar  
     2     1     6 ar  
     3     1     7 1   
     4     2     3 ar  
     5     2    17 1   
     6     3     4 ar  
     7     3    18 1   
     8     4     5 ar  
     9     4    11 1   
    10     5     6 ar  
    11     5    19 1   
    12     6    20 1   
    13     7     8 2   
    14     7     9 2   
    15     7    10 1   
    16    10    21 1   
    17    10    22 1   
    18    11    12 1   
    19    11    23 1   
    20    11    24 1   
    21    12    13 1   
    22    12    25 1   
    23    12    26 1   
    24    13    14 1   
    25    13    27 1   
    26    14    15 1   
    27    14    16 2   
    28    15    28 1   
    29    15    29 1   
    30    15    30 1   
@<TRIPOS>SUBSTRUCTURE
     1 M25         1 TEMP              0 ****  ****    0 ROOT
