@<TRIPOS>MOLECULE
M25
   30    30     1     0     0
SMALL
No Charge or Current Charge


@<TRIPOS>ATOM
      1 C1           1.8050    -1.1540     2.6300 ca         1 M25      -0.277500
      2 C2           0.8770    -0.3490     1.9350 ca         1 M25      -0.008500
      3 C3           0.9280    -0.2710     0.5330 ca         1 M25      -0.134000
      4 C4           1.8990    -0.9910    -0.1890 ca         1 M25      -0.020300
      5 C5           2.8220    -1.7930     0.5080 ca         1 M25      -0.134000
      6 C6           2.7780    -1.8770     1.9100 ca         1 M25      -0.008500
      7 S            1.7490    -1.2620     4.4210 sy         1 M25       1.122600
      8 O1           3.0600    -1.6330     4.9560 o          1 M25      -0.543000
      9 O2           0.9500    -0.1670     4.9650 o          1 M25      -0.543000
     10 N1           0.8080    -2.5810     4.6460 n8         1 M25      -1.000100
     11 C7           1.9490    -0.9100    -1.7100 c3         1 M25      -0.070100
     12 C8           1.3470    -2.1550    -2.3960 c3         1 M25       0.110000
     13 N2          -0.0310    -2.4230    -1.9710 ns         1 M25      -0.508900
     14 C9          -1.1310    -1.6970    -2.3620 c          1 M25       0.597100
     15 C10         -2.4430    -2.1340    -1.7250 c3         1 M25      -0.180100
     16 O3          -1.0630    -0.7740    -3.1600 o          1 M25      -0.607100
     17 H2           0.1180     0.2170     2.4730 ha         1 M25       0.137500
     18 H3           0.2070     0.3500     0.0060 ha         1 M25       0.120500
     19 H5           3.5750    -2.3550    -0.0380 ha         1 M25       0.120500
     20 H6           3.5000    -2.5040     2.4310 ha         1 M25       0.137500
     21 HN11         0.1050    -2.2100     5.2810 hn         1 M25       0.471000
     22 HN12         0.3200    -2.6520     3.7570 hn         1 M25       0.471000
     23 H71          2.9870    -0.7940    -2.0440 hc         1 M25       0.068700
     24 H72          1.4200    -0.0160    -2.0620 hc         1 M25       0.068700
     25 H81          1.3680    -2.0210    -3.4860 h1         1 M25       0.057200
     26 H82          1.9600    -3.0330    -2.1540 h1         1 M25       0.057200
     27 HN2         -0.1920    -3.1670    -1.3020 hn         1 M25       0.314500
     28 H101        -3.2970    -1.5380    -2.0630 hc         1 M25       0.060033
     29 H102        -2.5940    -3.2030    -1.9150 hc         1 M25       0.060033
     30 H103        -2.3360    -2.1050    -0.6340 hc         1 M25       0.060033
@<TRIPOS>BOND
     1     1     2 ar  
     2     1     6 ar  
     3     1     7 1   
     4     2     3 ar  
     5     2    17 1   
     6     3     4 ar  
     7     3    18 1   
     8     4     5 ar  
     9     4    11 1   
    10     5     6 ar  
    11     5    19 1   
    12     6    20 1   
    13     7     8 2   
    14     7     9 2   
    15     7    10 1   
    16    10    21 1   
    17    10    22 1   
    18    11    12 1   
    19    11    23 1   
    20    11    24 1   
    21    12    13 1   
    22    12    25 1   
    23    12    26 1   
    24    13    14 1   
    25    13    27 1   
    26    14    15 1   
    27    14    16 2   
    28    15    28 1   
    29    15    29 1   
    30    15    30 1   
@<TRIPOS>SUBSTRUCTURE
     1 M25         1 TEMP              0 ****  ****    0 ROOT
