@<TRIPOS>MOLECULE
M26
   44    46     1     0     0
SMALL
No Charge or Current Charge


@<TRIPOS>ATOM
      1 N1           5.9160     2.1680    19.0290 ns         1 M26      -0.140000
      2 C4           8.0650    -0.5000    19.3060 c3         1 M26      -0.135400
      3 C5           6.6350    -0.0290    18.9130 c5         1 M26      -0.088400
      4 C6           6.6420     1.3610    18.1770 c          1 M26       0.579000
      5 C7           5.3500     1.5520    20.1390 ca         1 M26      -0.025000
      6 C8           4.5160     2.0840    21.1290 ca         1 M26      -0.123000
      7 C10          4.4430    -0.1550    22.1210 ca         1 M26       0.126000
      8 C13         11.0480     0.6810    22.5350 ca         1 M26      -0.092300
      9 C15         13.1780     1.8600    22.3220 ca         1 M26      -0.105000
     10 C17         13.1390    -0.5700    22.3660 ca         1 M26      -0.006900
     11 N            8.8930    -0.0240    21.5720 ns         1 M26      -0.496900
     12 C11          5.2870    -0.6600    21.1090 ca         1 M26      -0.086000
     13 C1           9.0720     0.1880    24.0620 c3         1 M26       0.142600
     14 C18         11.7400    -0.5480    22.4920 ca         1 M26      -0.070000
     15 O1           9.1750     1.5500    19.9510 o          1 M26      -0.598100
     16 C2           9.5270     0.7140    22.6700 c3         1 M26       0.125000
     17 C16         13.8610     0.6320    22.2820 ca         1 M26      -0.081000
     18 C9           4.0560     1.2060    22.1340 ca         1 M26      -0.112000
     19 F            3.9970    -0.9830    23.0920 f          1 M26      -0.184000
     20 C12          5.7270     0.2250    20.1130 ca         1 M26      -0.127300
     21 C14         11.7780     1.8840    22.4470 ca         1 M26      -0.092000
     22 O            7.6280     0.1250    24.1480 os         1 M26      -0.457000
     23 O2           7.0380     1.6630    17.0570 o          1 M26      -0.516000
     24 C3           8.7520     0.4550    20.2900 c          1 M26       0.595100
     25 H1           5.6900     3.1230    18.7850 hn         1 M26       0.178000
     26 H2           7.9960    -1.4980    19.7540 hc         1 M26       0.074700
     27 H3           8.6820    -0.5590    18.4020 hc         1 M26       0.074700
     28 H4           6.2390    -0.7740    18.2140 hc         1 M26       0.093700
     29 H5           4.2260     3.1320    21.1200 ha         1 M26       0.129000
     30 H6          13.7340     2.7920    22.2540 ha         1 M26       0.120000
     31 H7           8.4790    -0.9250    21.7750 hn         1 M26       0.320500
     32 H8           5.5810    -1.7060    21.1030 ha         1 M26       0.137000
     33 H9           9.4910    -0.8150    24.2150 h1         1 M26       0.056200
     34 H10          9.4820     0.8370    24.8470 h1         1 M26       0.056200
     35 H11         11.1940    -1.4870    22.5520 ha         1 M26       0.129000
     36 H12          9.2050     1.7620    22.5940 h1         1 M26       0.083700
     37 H13         14.9440     0.6130    22.1840 ha         1 M26       0.131000
     38 H14          3.4040     1.5740    22.9220 ha         1 M26       0.134000
     39 H15         11.2610     2.8410    22.4740 ha         1 M26       0.116000
     40 H16          5.8720     1.2420    24.3380 h1         1 M26       0.037367
     41 H17          7.3460     2.0810    24.8600 h1         1 M26       0.037367
     42 H18          7.0080     1.8540    23.1230 h1         1 M26       0.037367
     43 Br          14.0630    -2.2430    22.3080 br         1 M26      -0.111100
     44 C            6.9360     1.3880    24.1140 c3         1 M26       0.134900
@<TRIPOS>BOND
     1     1     4 1   
     2     1     5 1   
     3     1    25 1   
     4     2     3 1   
     5     2    24 1   
     6     2    26 1   
     7     2    27 1   
     8     3     4 1   
     9     3    20 1   
    10     3    28 1   
    11     4    23 2   
    12     5     6 ar  
    13     5    20 ar  
    14     6    18 ar  
    15     6    29 1   
    16     7    12 ar  
    17     7    18 ar  
    18     7    19 1   
    19     8    14 ar  
    20     8    16 1   
    21     8    21 ar  
    22     9    17 ar  
    23     9    21 ar  
    24     9    30 1   
    25    10    14 ar  
    26    10    17 ar  
    27    10    43 1   
    28    11    16 1   
    29    11    24 1   
    30    11    31 1   
    31    12    20 ar  
    32    12    32 1   
    33    13    16 1   
    34    13    22 1   
    35    13    33 1   
    36    13    34 1   
    37    14    35 1   
    38    15    24 2   
    39    16    36 1   
    40    17    37 1   
    41    18    38 1   
    42    21    39 1   
    43    22    44 1   
    44    40    44 1   
    45    41    44 1   
    46    42    44 1   
@<TRIPOS>SUBSTRUCTURE
     1 M26         1 TEMP              0 ****  ****    0 ROOT
