@<TRIPOS>MOLECULE
M26
   44    46     1     0     0
SMALL
abcg2


@<TRIPOS>ATOM
      1 N1           5.8200     1.9310    18.5640 ns         1 M26      -0.140000
      2 C4           7.8950    -0.7730    19.4920 c3         1 M26      -0.135400
      3 C5           6.5260    -0.2470    19.0430 c5         1 M26      -0.088400
      4 C6           6.6150     0.9380    18.0670 c          1 M26       0.579000
      5 C7           5.2540     1.5900    19.7980 ca         1 M26      -0.025000
      6 C8           4.4410     2.3510    20.6190 ca         1 M26      -0.123000
      7 C10          4.4120     0.5000    22.1460 ca         1 M26       0.126000
      8 C13         11.0750     0.6830    22.5140 ca         1 M26      -0.092300
      9 C15         13.1050     1.8780    23.0580 ca         1 M26      -0.105000
     10 C17         13.2110    -0.1570    21.8180 ca         1 M26      -0.006900
     11 N            8.9610    -0.2660    21.6120 ns         1 M26      -0.496900
     12 C11          5.2280    -0.2730    21.3300 ca         1 M26      -0.086000
     13 C1           9.2100    -0.0030    24.0200 c3         1 M26       0.142600
     14 C18         11.8300    -0.2880    21.8620 ca         1 M26      -0.070000
     15 O1           8.7730     1.3850    20.0760 o          1 M26      -0.598100
     16 C2           9.5680     0.5610    22.6360 c3         1 M26       0.125000
     17 C16         13.8680     0.9120    22.4080 ca         1 M26      -0.081000
     18 C9           4.0140     1.7830    21.8220 ca         1 M26      -0.112000
     19 F            3.9900    -0.0310    23.3270 f          1 M26      -0.184000
     20 C12          5.6440     0.2900    20.1390 ca         1 M26      -0.127300
     21 C14         11.7220     1.7660    23.1090 ca         1 M26      -0.092000
     22 O            7.8200    -0.1310    24.2420 os         1 M26      -0.457000
     23 O2           7.2450     0.9780    17.0230 o          1 M26      -0.516000
     24 C3           8.5860     0.2150    20.4130 c          1 M26       0.595100
     25 H1           5.7060     2.8250    18.1100 hn         1 M26       0.178000
     26 H2           7.7730    -1.7420    19.9750 hc         1 M26       0.074700
     27 H3           8.5240    -0.9150    18.6110 hc         1 M26       0.074700
     28 H4           6.0220    -1.0530    18.5000 hc         1 M26       0.093700
     29 H5           4.1460     3.3550    20.3480 ha         1 M26       0.129000
     30 H6          13.5990     2.7230    23.5190 ha         1 M26       0.120000
     31 H7           8.7350    -1.2210    21.8410 hn         1 M26       0.320500
     32 H8           5.5220    -1.2690    21.6340 ha         1 M26       0.137000
     33 H9           9.6280    -1.0080    24.1160 h1         1 M26       0.056200
     34 H10          9.6660     0.6370    24.7820 h1         1 M26       0.056200
     35 H11         11.3440    -1.1300    21.3890 ha         1 M26       0.129000
     36 H12          9.1470     1.5620    22.5350 h1         1 M26       0.083700
     37 H13         14.9450     0.9960    22.3590 ha         1 M26       0.131000
     38 H14          3.3810     2.3360    22.5030 ha         1 M26       0.134000
     39 H15         11.1370     2.5280    23.6100 ha         1 M26       0.116000
     40 H16          6.1270     0.8880    24.6980 h1         1 M26       0.037367
     41 H17          7.6330     1.7660    25.0760 h1         1 M26       0.037367
     42 H18          7.0710     1.6260    23.3900 h1         1 M26       0.037367
     43 BR          14.2410    -1.4950    20.9050 br         1 M26      -0.111100
     44 C            7.1350     1.1120    24.3530 c3         1 M26       0.134900
@<TRIPOS>BOND
     1     1     4 1   
     2     1     5 1   
     3     1    25 1   
     4     2     3 1   
     5     2    24 1   
     6     2    26 1   
     7     2    27 1   
     8     3     4 1   
     9     3    20 1   
    10     3    28 1   
    11     4    23 2   
    12     5     6 ar  
    13     5    20 ar  
    14     6    18 ar  
    15     6    29 1   
    16     7    12 ar  
    17     7    18 ar  
    18     7    19 1   
    19     8    14 ar  
    20     8    16 1   
    21     8    21 ar  
    22     9    17 ar  
    23     9    21 ar  
    24     9    30 1   
    25    10    14 ar  
    26    10    17 ar  
    27    10    43 1   
    28    11    16 1   
    29    11    24 1   
    30    11    31 1   
    31    12    20 ar  
    32    12    32 1   
    33    13    16 1   
    34    13    22 1   
    35    13    33 1   
    36    13    34 1   
    37    14    35 1   
    38    15    24 2   
    39    16    36 1   
    40    17    37 1   
    41    18    38 1   
    42    21    39 1   
    43    22    44 1   
    44    40    44 1   
    45    41    44 1   
    46    42    44 1   
@<TRIPOS>SUBSTRUCTURE
     1 M26         1 TEMP              0 ****  ****    0 ROOT
