@<TRIPOS>MOLECULE
M28
   25    25     1     0     0
SMALL
No Charge or Current Charge


@<TRIPOS>ATOM
      1 C1           1.8950    -1.1730     2.7210 ca         1 M28      -0.295500
      2 C2           0.9060    -0.4540     2.0170 ca         1 M28      -0.016000
      3 C3           0.9270    -0.4230     0.6120 ca         1 M28      -0.140500
      4 C4           1.9290    -1.1040    -0.1040 ca         1 M28       0.018700
      5 C5           2.9120    -1.8220     0.6020 ca         1 M28      -0.140500
      6 C6           2.8990    -1.8580     2.0070 ca         1 M28      -0.016000
      7 S            1.8760    -1.2230     4.5150 sy         1 M28       1.123600
      8 O1           3.2080    -1.5220     5.0410 o          1 M28      -0.562500
      9 O2           1.0380    -0.1460     5.0380 o          1 M28      -0.562500
     10 N3           0.9920    -2.5690     4.7960 n8         1 M28      -0.994100
     11 C7           1.9450    -1.0690    -1.6270 c3         1 M28      -0.034100
     12 C8           1.1220    -2.2210    -2.2510 c3         1 M28      -0.205400
     13 C9           1.1750    -2.1350    -3.7840 c          1 M28       0.719000
     14 O4           0.3330    -1.4560    -4.3520 o          1 M28      -0.734500
     15 O5           2.0880    -2.7040    -4.3620 o          1 M28      -0.734500
     16 H2           0.1220     0.0810     2.5510 ha         1 M28       0.122500
     17 H3           0.1590     0.1320     0.0780 ha         1 M28       0.121500
     18 H5           3.6890    -2.3560     0.0600 ha         1 M28       0.121500
     19 H6           3.6670    -2.4210     2.5340 ha         1 M28       0.122500
     20 HN31         0.2600    -2.1940     5.3940 hn         1 M28       0.463500
     21 HN32         0.5300    -2.7100     3.9020 hn         1 M28       0.463500
     22 H71          1.5510    -0.1080    -1.9830 hc         1 M28       0.058200
     23 H72          2.9790    -1.1240    -1.9910 hc         1 M28       0.058200
     24 H81          1.5920    -3.1480    -1.9010 hc         1 M28       0.022700
     25 H82          0.0950    -2.0830    -1.8920 hc         1 M28       0.022700
@<TRIPOS>BOND
     1     1     2 ar  
     2     1     6 ar  
     3     1     7 1   
     4     2     3 ar  
     5     2    16 1   
     6     3     4 ar  
     7     3    17 1   
     8     4     5 ar  
     9     4    11 1   
    10     5     6 ar  
    11     5    18 1   
    12     6    19 1   
    13     7     8 2   
    14     7     9 2   
    15     7    10 1   
    16    10    20 1   
    17    10    21 1   
    18    11    12 1   
    19    11    22 1   
    20    11    23 1   
    21    12    13 1   
    22    12    24 1   
    23    12    25 1   
    24    13    14 1   
    25    13    15 1   
@<TRIPOS>SUBSTRUCTURE
     1 M28         1 TEMP              0 ****  ****    0 ROOT
