@<TRIPOS>MOLECULE
M28
   25    25     1     0     0
SMALL
bcc


@<TRIPOS>ATOM
      1 C1           1.7600    -1.0970     2.6460 ca         1 M28      -0.295500
      2 C2           0.7500    -0.4600     1.9400 ca         1 M28      -0.034000
      3 C3           0.8240    -0.4100     0.5560 ca         1 M28      -0.158500
      4 C4           1.8930    -0.9800    -0.1310 ca         1 M28       0.018700
      5 C5           2.8960    -1.6100     0.6070 ca         1 M28      -0.158500
      6 C6           2.8380    -1.6750     1.9870 ca         1 M28      -0.034000
      7 S            1.6920    -1.1740     4.4080 sy         1 M28       1.265200
      8 O1           3.0410    -1.1280     4.9540 o          1 M28      -0.633300
      9 O2           0.7300    -0.1790     4.8670 o          1 M28      -0.633300
     10 N3           1.1690    -2.7260     4.6410 n8         1 M28      -0.883700
     11 C7           1.9460    -0.9610    -1.6310 c3         1 M28      -0.034100
     12 C8           1.2610    -2.1910    -2.2240 c3         1 M28      -0.205400
     13 C9           1.2900    -2.2770    -3.7620 c          1 M28       0.929600
     14 O4           1.8250    -1.3420    -4.3860 o          1 M28      -0.839800
     15 O5           0.7620    -3.2950    -4.2560 o          1 M28      -0.839800
     16 H2          -0.0850    -0.0030     2.4520 ha         1 M28       0.140500
     17 H3           0.0360     0.0880     0.0040 ha         1 M28       0.139500
     18 H5           3.7400    -2.0530     0.0930 ha         1 M28       0.139500
     19 H6           3.6310    -2.1650     2.5380 ha         1 M28       0.140500
     20 HN31         1.3170    -3.0230     5.6020 hn         1 M28       0.408300
     21 HN32         0.1920    -2.8470     4.3910 hn         1 M28       0.408300
     22 H71          1.4650    -0.0550    -2.0050 hc         1 M28       0.058200
     23 H72          2.9860    -0.9250    -1.9590 hc         1 M28       0.058200
     24 H81          1.7150    -3.0990    -1.8150 hc         1 M28       0.022700
     25 H82          0.2150    -2.2220    -1.8970 hc         1 M28       0.022700
@<TRIPOS>BOND
     1     1     2 ar  
     2     1     6 ar  
     3     1     7 1   
     4     2     3 ar  
     5     2    16 1   
     6     3     4 ar  
     7     3    17 1   
     8     4     5 ar  
     9     4    11 1   
    10     5     6 ar  
    11     5    18 1   
    12     6    19 1   
    13     7     8 2   
    14     7     9 2   
    15     7    10 1   
    16    10    20 1   
    17    10    21 1   
    18    11    12 1   
    19    11    22 1   
    20    11    23 1   
    21    12    13 1   
    22    12    24 1   
    23    12    25 1   
    24    13    14 1   
    25    13    15 1   
@<TRIPOS>SUBSTRUCTURE
     1 M28         1 TEMP              0 ****  ****    0 ROOT
