@<TRIPOS>MOLECULE
M29
   32    32     1     0     0
SMALL
bcc


@<TRIPOS>ATOM
      1 C1           3.5560    -3.6440     7.7490 ca         1 M29      -0.275500
      2 C2           2.5110    -2.9240     7.1910 ca         1 M29      -0.023500
      3 C3           2.5340    -2.6490     5.8310 ca         1 M29      -0.148500
      4 C4           3.5860    -3.0810     5.0290 ca         1 M29      -0.027300
      5 C5           4.6230    -3.8050     5.6160 ca         1 M29      -0.148500
      6 C6           4.6190    -4.0860     6.9700 ca         1 M29      -0.023500
      7 S            3.5890    -3.9610     9.4870 sy         1 M29       1.268200
      8 O1           4.9100    -3.6440    10.0110 o          1 M29      -0.614800
      9 O2           2.4370    -3.3020    10.0900 o          1 M29      -0.614800
     10 N            3.4790    -5.6080     9.5170 n8         1 M29      -0.897700
     11 C7           3.5900    -2.8060     3.5520 c3         1 M29      -0.032100
     12 C8           2.8060    -3.8770     2.8000 c3         1 M29      -0.137400
     13 C9           2.8090    -3.6670     1.3090 c          1 M29       0.642100
     14 O3           2.1030    -4.6000     0.6870 os         1 M29      -0.429900
     15 O4           3.3790    -2.7690     0.7390 o          1 M29      -0.539000
     16 C10          2.0220    -4.5460    -0.7470 c3         1 M29       0.144400
     17 C11          1.1310    -5.6760    -1.2020 c3         1 M29      -0.097100
     18 H2           1.6870    -2.5740     7.7980 ha         1 M29       0.156000
     19 H3           1.7200    -2.0840     5.3940 ha         1 M29       0.138000
     20 H5           5.4510    -4.1480     5.0080 ha         1 M29       0.138000
     21 H6           5.4370    -4.6440     7.4070 ha         1 M29       0.156000
     22 HN1          3.8050    -5.9880    10.4000 hn         1 M29       0.418800
     23 HN2          2.5450    -5.9470     9.3080 hn         1 M29       0.418800
     24 H71          3.1540    -1.8250     3.3580 hc         1 M29       0.068200
     25 H72          4.6190    -2.7760     3.1910 hc         1 M29       0.068200
     26 H81          1.7680    -3.9060     3.1440 hc         1 M29       0.075200
     27 H82          3.2140    -4.8700     3.0100 hc         1 M29       0.075200
     28 H101         1.6180    -3.5810    -1.0590 h1         1 M29       0.049200
     29 H102         3.0240    -4.6440    -1.1720 h1         1 M29       0.049200
     30 H111         1.0690    -5.6620    -2.2900 hc         1 M29       0.047033
     31 H112         1.5260    -6.6460    -0.9020 hc         1 M29       0.047033
     32 H113         0.1200    -5.5740    -0.8090 hc         1 M29       0.047033
@<TRIPOS>BOND
     1     1     2 ar  
     2     1     6 ar  
     3     1     7 1   
     4     2     3 ar  
     5     2    18 1   
     6     3     4 ar  
     7     3    19 1   
     8     4     5 ar  
     9     4    11 1   
    10     5     6 ar  
    11     5    20 1   
    12     6    21 1   
    13     7     8 2   
    14     7     9 2   
    15     7    10 1   
    16    10    22 1   
    17    10    23 1   
    18    11    12 1   
    19    11    24 1   
    20    11    25 1   
    21    12    13 1   
    22    12    26 1   
    23    12    27 1   
    24    13    14 1   
    25    13    15 2   
    26    14    16 1   
    27    16    17 1   
    28    16    28 1   
    29    16    29 1   
    30    17    30 1   
    31    17    31 1   
    32    17    32 1   
@<TRIPOS>SUBSTRUCTURE
     1 M29         1 TEMP              0 ****  ****    0 ROOT
