@<TRIPOS>MOLECULE
M29
   32    32     1     0     0
SMALL
No Charge or Current Charge


@<TRIPOS>ATOM
      1 C1           3.4360    -3.5840     7.7290 ca         1 M29      -0.275500
      2 C2           2.2200    -3.5650     7.0160 ca         1 M29      -0.005500
      3 C3           2.2280    -3.4460     5.6160 ca         1 M29      -0.130500
      4 C4           3.4450    -3.3440     4.9150 ca         1 M29      -0.027300
      5 C5           4.6570    -3.3680     5.6290 ca         1 M29      -0.130500
      6 C6           4.6570    -3.4880     7.0300 ca         1 M29      -0.005500
      7 S            3.4310    -3.7360     9.5190 sy         1 M29       1.126600
      8 O1           4.6930    -3.2680    10.0880 o          1 M29      -0.544000
      9 O2           2.1350    -3.3510    10.0730 o          1 M29      -0.544000
     10 N            3.4820    -5.3490     9.7520 n8         1 M29      -1.008100
     11 C7           3.4490    -3.2210     3.3970 c3         1 M29      -0.032100
     12 C8           3.5030    -4.6010     2.7040 c3         1 M29      -0.137400
     13 C9           3.4950    -4.4560     1.1830 c          1 M29       0.593100
     14 O3           2.2290    -4.5610     0.6680 os         1 M29      -0.453100
     15 O4           4.5010    -4.2600     0.5140 o          1 M29      -0.490000
     16 C10          2.0660    -4.4360    -0.7550 c3         1 M29       0.167600
     17 C11          0.5680    -4.5880    -1.0620 c3         1 M29      -0.097100
     18 H2           1.2690    -3.6450     7.5410 ha         1 M29       0.138000
     19 H3           1.2850    -3.4340     5.0750 ha         1 M29       0.120000
     20 H5           5.6040    -3.2970     5.0990 ha         1 M29       0.120000
     21 H6           5.6050    -3.5060     7.5650 ha         1 M29       0.138000
     22 HN1          4.2720    -5.4160    10.3890 hn         1 M29       0.474000
     23 HN2          2.6910    -5.4670    10.3810 hn         1 M29       0.474000
     24 H71          2.5540    -2.6820     3.0600 hc         1 M29       0.068200
     25 H72          4.3070    -2.6190     3.0710 hc         1 M29       0.068200
     26 H81          2.6140    -5.1610     3.0180 hc         1 M29       0.075200
     27 H82          4.4170    -5.1210     3.0130 hc         1 M29       0.075200
     28 H101         2.4140    -3.4550    -1.1050 h1         1 M29       0.049200
     29 H102         2.6300    -5.2160    -1.2840 h1         1 M29       0.049200
     30 H111         0.3910    -4.4990    -2.1400 hc         1 M29       0.047033
     31 H112         0.2040    -5.5680    -0.7320 hc         1 M29       0.047033
     32 H113        -0.0110    -3.8080    -0.5530 hc         1 M29       0.047033
@<TRIPOS>BOND
     1     1     2 ar  
     2     1     6 ar  
     3     1     7 1   
     4     2     3 ar  
     5     2    18 1   
     6     3     4 ar  
     7     3    19 1   
     8     4     5 ar  
     9     4    11 1   
    10     5     6 ar  
    11     5    20 1   
    12     6    21 1   
    13     7     8 2   
    14     7     9 2   
    15     7    10 1   
    16    10    22 1   
    17    10    23 1   
    18    11    12 1   
    19    11    24 1   
    20    11    25 1   
    21    12    13 1   
    22    12    26 1   
    23    12    27 1   
    24    13    14 1   
    25    13    15 2   
    26    14    16 1   
    27    16    17 1   
    28    16    28 1   
    29    16    29 1   
    30    17    30 1   
    31    17    31 1   
    32    17    32 1   
@<TRIPOS>SUBSTRUCTURE
     1 M29         1 TEMP              0 ****  ****    0 ROOT
