@<TRIPOS>MOLECULE
M2B
   25    26     1     0     0
SMALL
abcg2


@<TRIPOS>ATOM
      1 N1           4.3760     0.5850    -0.0260 nt         1 M2B      -0.602000
      2 C2           3.3500    -0.2710     0.1270 c          1 M2B       0.669700
      3 O3           3.5290    -1.4560     0.4190 o          1 M2B      -0.658100
      4 C4           2.0110     0.2720    -0.0590 cc         1 M2B      -0.373600
      5 C5           1.5690     1.5810    -0.3580 cc         1 M2B       0.303900
      6 N6           0.2690     1.6680    -0.4000 nd         1 M2B      -0.515800
      7 N7          -0.1800     0.4120    -0.1410 na         1 M2B       0.170000
      8 C8           0.8300    -0.4580     0.0840 cd         1 M2B       0.328000
      9 N9           0.6480    -1.7720     0.3510 nv         1 M2B      -1.068000
     10 C10         -1.5690     0.1670    -0.0900 ca         1 M2B       0.008800
     11 C11         -2.1110    -0.9450    -0.7250 ca         1 M2B      -0.107500
     12 C12         -3.4800    -1.1660    -0.6630 ca         1 M2B      -0.102500
     13 C13         -4.3070    -0.2760     0.0080 ca         1 M2B      -0.108000
     14 C14         -3.7580     0.8420     0.6230 ca         1 M2B      -0.102500
     15 C15         -2.3910     1.0650     0.5830 ca         1 M2B      -0.107500
     16 H1           4.2510     1.5450    -0.2920 hn         1 M2B       0.312000
     17 H2           5.3220     0.2540     0.0660 hn         1 M2B       0.312000
     18 H3           2.1670     2.4620    -0.5460 h4         1 M2B       0.032100
     19 H4           1.4810    -2.2390     0.6740 hn         1 M2B       0.490500
     20 H5          -0.1950    -2.0410     0.8360 hn         1 M2B       0.490500
     21 H6          -1.4790    -1.6270    -1.2760 ha         1 M2B       0.135500
     22 H7          -3.9000    -2.0340    -1.1550 ha         1 M2B       0.119000
     23 H8          -5.3740    -0.4500     0.0480 ha         1 M2B       0.118000
     24 H9          -4.3960     1.5430     1.1470 ha         1 M2B       0.119000
     25 H10         -1.9620     1.9300     1.0700 ha         1 M2B       0.135500
@<TRIPOS>BOND
     1     1     2 1   
     2     1    16 1   
     3     1    17 1   
     4     2     3 2   
     5     2     4 1   
     6     4     5 1   
     7     4     8 2   
     8     5     6 2   
     9     5    18 1   
    10     6     7 1   
    11     7     8 1   
    12     7    10 1   
    13     8     9 1   
    14     9    19 1   
    15     9    20 1   
    16    10    11 ar  
    17    10    15 ar  
    18    11    12 ar  
    19    11    21 1   
    20    12    13 ar  
    21    12    22 1   
    22    13    14 ar  
    23    13    23 1   
    24    14    15 ar  
    25    14    24 1   
    26    15    25 1   
@<TRIPOS>SUBSTRUCTURE
     1 M2B         1 TEMP              0 ****  ****    0 ROOT
