@<TRIPOS>MOLECULE
M2B
   25    26     1     0     0
SMALL
No Charge or Current Charge


@<TRIPOS>ATOM
      1 N1           4.3290     0.5400    -0.0830 nt         1 M2B      -0.602000
      2 C2           3.2980    -0.2300     0.3100 c          1 M2B       0.669700
      3 O3           3.5150    -1.2560     0.9310 o          1 M2B      -0.658100
      4 C4           1.9660     0.2510    -0.0540 cc         1 M2B      -0.373600
      5 C5           1.6620     1.4380    -0.7570 cc         1 M2B       0.303900
      6 N6           0.3730     1.6550    -0.9530 nd         1 M2B      -0.515800
      7 N7          -0.1610     0.5350    -0.3430 na         1 M2B       0.170000
      8 C8           0.7830    -0.3440     0.2200 cd         1 M2B       0.328000
      9 N9           0.5020    -1.5130     0.8790 nv         1 M2B      -1.068000
     10 C10         -1.5150     0.2200    -0.2170 ca         1 M2B       0.008800
     11 C11         -2.1290    -0.6570    -1.1330 ca         1 M2B      -0.107500
     12 C12         -3.4940    -0.9720    -1.0050 ca         1 M2B      -0.102500
     13 C13         -4.2500    -0.4080     0.0370 ca         1 M2B      -0.108000
     14 C14         -3.6440     0.4720     0.9500 ca         1 M2B      -0.102500
     15 C15         -2.2790     0.7870     0.8230 ca         1 M2B      -0.107500
     16 H1           4.1630     1.3910    -0.5960 hn         1 M2B       0.312000
     17 H2           5.2680     0.2520     0.1450 hn         1 M2B       0.312000
     18 H3           2.3620     2.1710    -1.1360 h4         1 M2B       0.032100
     19 H4           1.2620    -1.9970     1.3570 hn         1 M2B       0.490500
     20 H5          -0.4510    -1.7250     1.1650 hn         1 M2B       0.490500
     21 H6          -1.5470    -1.0950    -1.9410 ha         1 M2B       0.135500
     22 H7          -3.9650    -1.6510    -1.7130 ha         1 M2B       0.119000
     23 H8          -5.3060    -0.6510     0.1360 ha         1 M2B       0.118000
     24 H9          -4.2300     0.9100     1.7550 ha         1 M2B       0.119000
     25 H10         -1.8130     1.4700     1.5300 ha         1 M2B       0.135500
@<TRIPOS>BOND
     1     1     2 1   
     2     1    16 1   
     3     1    17 1   
     4     2     3 2   
     5     2     4 1   
     6     4     5 1   
     7     4     8 2   
     8     5     6 2   
     9     5    18 1   
    10     6     7 1   
    11     7     8 1   
    12     7    10 1   
    13     8     9 1   
    14     9    19 1   
    15     9    20 1   
    16    10    11 ar  
    17    10    15 ar  
    18    11    12 ar  
    19    11    21 1   
    20    12    13 ar  
    21    12    22 1   
    22    13    14 ar  
    23    13    23 1   
    24    14    15 ar  
    25    14    24 1   
    26    15    25 1   
@<TRIPOS>SUBSTRUCTURE
     1 M2B         1 TEMP              0 ****  ****    0 ROOT
