@<TRIPOS>MOLECULE
M2C
   31    31     1     0     0
SMALL
bcc


@<TRIPOS>ATOM
      1 OA          -1.4370    -1.5930    -0.6040 oh         1 M2C      -0.585800
      2 C7          -0.9600    -0.3080    -0.8230 c3         1 M2C       0.330300
      3 O8          -2.0460     0.5570    -0.8200 oh         1 M2C      -0.585800
      4 C9           0.0330     0.1330     0.2990 c3         1 M2C       0.114500
      5 C11         -0.4740    -0.2490     1.6880 c3         1 M2C      -0.068400
      6 C12          0.5580     0.0300     2.7760 c3         1 M2C       0.006700
      7 S13         -0.0500    -0.6090     4.3620 ss         1 M2C      -0.326200
      8 C14          1.2660    -0.0260     5.4530 c3         1 M2C      -0.010000
      9 N10          0.1680     1.5810     0.1910 n8         1 M2C      -0.929800
     10 C1          -0.2310    -0.2790    -2.1680 ca         1 M2C       0.349600
     11 C2          -0.1620     0.8540    -2.9670 ca         1 M2C      -0.214300
     12 C3           0.5650     0.7850    -4.1470 ca         1 M2C      -0.093000
     13 C4           1.1840    -0.4070    -4.4920 ca         1 M2C      -0.244300
     14 C5           1.0450    -1.4880    -3.6360 ca         1 M2C       0.414200
     15 N6           0.3580    -1.4210    -2.5030 nb         1 M2C      -0.702000
     16 HOA         -0.8960    -2.1900    -1.1460 ho         1 M2C       0.447000
     17 HO8         -1.7010     1.3840    -0.4320 ho         1 M2C       0.447000
     18 H9           0.9840    -0.3920     0.1300 h1         1 M2C       0.041700
     19 H111        -0.7100    -1.3130     1.6940 hc         1 M2C       0.079700
     20 H112        -1.4000     0.2880     1.9150 hc         1 M2C       0.079700
     21 H121         0.7490     1.0980     2.8950 h1         1 M2C       0.050200
     22 H122         1.5070    -0.4530     2.5320 h1         1 M2C       0.050200
     23 H141         1.0300    -0.3560     6.4630 h1         1 M2C       0.059033
     24 H142         2.2300    -0.4440     5.1650 h1         1 M2C       0.059033
     25 H143         1.3270     1.0610     5.4470 h1         1 M2C       0.059033
     26 H101         0.4870     1.9910     1.0580 hn         1 M2C       0.355800
     27 H102         0.8530     1.8370    -0.5090 hn         1 M2C       0.355800
     28 H2          -0.6650     1.7690    -2.6880 ha         1 M2C       0.155000
     29 H3           0.6410     1.6500    -4.7920 ha         1 M2C       0.139000
     30 H4           1.7580    -0.5020    -5.4040 ha         1 M2C       0.144000
     31 H5           1.5020    -2.4420    -3.8720 h4         1 M2C       0.022100
@<TRIPOS>BOND
     1     1     2 1   
     2     1    16 1   
     3     2     3 1   
     4     2     4 1   
     5     2    10 1   
     6     3    17 1   
     7     4     5 1   
     8     4     9 1   
     9     4    18 1   
    10     5     6 1   
    11     5    19 1   
    12     5    20 1   
    13     6     7 1   
    14     6    21 1   
    15     6    22 1   
    16     7     8 1   
    17     8    23 1   
    18     8    24 1   
    19     8    25 1   
    20     9    26 1   
    21     9    27 1   
    22    10    11 ar  
    23    10    15 ar  
    24    11    12 ar  
    25    11    28 1   
    26    12    13 ar  
    27    12    29 1   
    28    13    14 ar  
    29    13    30 1   
    30    14    15 ar  
    31    14    31 1   
@<TRIPOS>SUBSTRUCTURE
     1 M2C         1 TEMP              0 ****  ****    0 ROOT
