@<TRIPOS>MOLECULE
M2C
   31    31     1     0     0
SMALL
No Charge or Current Charge


@<TRIPOS>ATOM
      1 OA          -2.2270    -0.6520    -0.8010 oh         1 M2C      -0.648000
      2 C7          -1.2270     0.3200    -1.0720 c3         1 M2C       0.376700
      3 O8          -1.9370     1.4220    -1.5840 oh         1 M2C      -0.648000
      4 C9          -0.5960     0.8600     0.2670 c3         1 M2C       0.114500
      5 C11         -0.1690    -0.2520     1.2610 c3         1 M2C      -0.068400
      6 C12          0.6480     0.2620     2.4650 c3         1 M2C       0.054600
      7 S13          1.1860    -1.1520     3.5280 ss         1 M2C      -0.422000
      8 C14          2.1220    -0.2300     4.8300 c3         1 M2C       0.037900
      9 N10         -1.5100     1.8670     0.9060 n8         1 M2C      -1.040200
     10 C1          -0.1950    -0.2500    -2.0920 ca         1 M2C       0.284300
     11 C2           0.8970     0.5220    -2.5440 ca         1 M2C      -0.131000
     12 C3           1.8010    -0.0300    -3.4660 ca         1 M2C      -0.075000
     13 C4           1.5750    -1.3430    -3.9110 ca         1 M2C      -0.161000
     14 C5           0.4620    -2.0500    -3.4270 ca         1 M2C       0.348900
     15 N6          -0.4130    -1.5240    -2.5370 nb         1 M2C      -0.702000
     16 HOA         -2.0330    -1.3270    -1.4960 ho         1 M2C       0.486000
     17 HO8         -2.0220     1.9310    -0.7300 ho         1 M2C       0.486000
     18 H9           0.3150     1.4070    -0.0110 h1         1 M2C       0.041700
     19 H111         0.4370    -0.9910     0.7230 hc         1 M2C       0.079700
     20 H112        -1.0550    -0.7830     1.6310 hc         1 M2C       0.079700
     21 H121         0.0420     0.9500     3.0690 h1         1 M2C       0.050200
     22 H122         1.5370     0.7990     2.1090 h1         1 M2C       0.050200
     23 H141         2.5240    -0.9370     5.5680 h1         1 M2C       0.059033
     24 H142         2.9530     0.3220     4.3730 h1         1 M2C       0.059033
     25 H143         1.4550     0.4780     5.3390 h1         1 M2C       0.059033
     26 H101        -2.2480     1.3640     1.4180 hn         1 M2C       0.411000
     27 H102        -1.0050     2.3590     1.6560 hn         1 M2C       0.411000
     28 H2           1.0360     1.5400    -2.1900 ha         1 M2C       0.137000
     29 H3           2.6500     0.5440    -3.8300 ha         1 M2C       0.121000
     30 H4           2.2460    -1.8110    -4.6250 ha         1 M2C       0.126000
     31 H5           0.2630    -3.0680    -3.7600 h4         1 M2C       0.022100
@<TRIPOS>BOND
     1     1     2 1   
     2     1    16 1   
     3     2     3 1   
     4     2     4 1   
     5     2    10 1   
     6     3    17 1   
     7     4     5 1   
     8     4     9 1   
     9     4    18 1   
    10     5     6 1   
    11     5    19 1   
    12     5    20 1   
    13     6     7 1   
    14     6    21 1   
    15     6    22 1   
    16     7     8 1   
    17     8    23 1   
    18     8    24 1   
    19     8    25 1   
    20     9    26 1   
    21     9    27 1   
    22    10    11 ar  
    23    10    15 ar  
    24    11    12 ar  
    25    11    28 1   
    26    12    13 ar  
    27    12    29 1   
    28    13    14 ar  
    29    13    30 1   
    30    14    15 ar  
    31    14    31 1   
@<TRIPOS>SUBSTRUCTURE
     1 M2C         1 TEMP              0 ****  ****    0 ROOT
