@<TRIPOS>MOLECULE
M2E
   30    31     1     0     0
SMALL
bcc


@<TRIPOS>ATOM
      1 C10         -0.5670    -0.8050     0.0660 ca         1 M2E      -0.144600
      2 C11         -1.1570    -0.3100     1.2250 ca         1 M2E      -0.087500
      3 O01          2.5860     2.8870    -0.4920 oh         1 M2E      -0.590800
      4 C02          2.5710     1.4820    -0.5750 c6         1 M2E       0.125100
      5 C03          4.0030     0.9790    -0.5250 c6         1 M2E      -0.075400
      6 C04          4.0390    -0.5460    -0.4970 c6         1 M2E      -0.102400
      7 C05          3.1730    -1.0880     0.6320 c6         1 M2E       0.087000
      8 N06          1.8150    -0.5700     0.5330 n          1 M2E      -0.463800
      9 C07          1.7550     0.8810     0.5770 c6         1 M2E       0.060000
     10 C08          0.8220    -1.3630     0.0760 c          1 M2E       0.679700
     11 O09          0.9980    -2.5180    -0.2880 o          1 M2E      -0.587100
     12 C12         -2.4790     0.1070     1.2220 ca         1 M2E      -0.129000
     13 C13         -3.2040     0.0380     0.0420 ca         1 M2E       0.040400
     14 CL1         -4.8500     0.5740     0.0240 cl         1 M2E      -0.104400
     15 C15         -2.6350    -0.4530    -1.1230 ca         1 M2E      -0.129000
     16 C16         -1.3200    -0.8890    -1.1000 ca         1 M2E      -0.087500
     17 H1          -0.5920    -0.2550     2.1470 ha         1 M2E       0.146500
     18 H3           2.1130     1.1460    -1.5180 h1         1 M2E       0.035700
     19 H4           4.5630     1.3580    -1.3830 hc         1 M2E       0.056700
     20 H5           4.4860     1.3730     0.3770 hc         1 M2E       0.056700
     21 H6           3.6870    -0.9520    -1.4500 hc         1 M2E       0.054700
     22 H7           5.0640    -0.8970    -0.3630 hc         1 M2E       0.054700
     23 H8           3.1500    -2.1740     0.6270 h1         1 M2E       0.064200
     24 H9           3.5800    -0.7710     1.5970 h1         1 M2E       0.064200
     25 H10          2.1650     1.2250     1.5320 h1         1 M2E       0.060700
     26 H11          0.7250     1.2270     0.5200 h1         1 M2E       0.060700
     27 H12         -2.9340     0.4810     2.1280 ha         1 M2E       0.151500
     28 H13         -3.2100    -0.5020    -2.0380 ha         1 M2E       0.151500
     29 H14         -0.8790    -1.2830    -2.0060 ha         1 M2E       0.146500
     30 H2           1.7000     3.2150    -0.6790 ho         1 M2E       0.406000
@<TRIPOS>BOND
     1     1     2 ar  
     2     1    10 1   
     3     1    16 ar  
     4     2    12 ar  
     5     2    17 1   
     6     3     4 1   
     7     3    30 1   
     8     4     5 1   
     9     4     9 1   
    10     4    18 1   
    11     5     6 1   
    12     5    19 1   
    13     5    20 1   
    14     6     7 1   
    15     6    21 1   
    16     6    22 1   
    17     7     8 1   
    18     7    23 1   
    19     7    24 1   
    20     8     9 1   
    21     8    10 1   
    22     9    25 1   
    23     9    26 1   
    24    10    11 2   
    25    12    13 ar  
    26    12    27 1   
    27    13    14 1   
    28    13    15 ar  
    29    15    16 ar  
    30    15    28 1   
    31    16    29 1   
@<TRIPOS>SUBSTRUCTURE
     1 M2E         1 TEMP              0 ****  ****    0 ROOT
