@<TRIPOS>MOLECULE
M2E
   30    31     1     0     0
SMALL
No Charge or Current Charge


@<TRIPOS>ATOM
      1 C10         -0.6710    -0.8390    -0.0680 ca         1 M2E      -0.144600
      2 C11         -1.1260    -0.1610     1.0880 ca         1 M2E      -0.069500
      3 O01          2.7840     3.0050    -0.3720 oh         1 M2E      -0.653000
      4 C02          2.7540     1.5810    -0.5290 c6         1 M2E       0.148300
      5 C03          4.1780     1.0060    -0.3440 c6         1 M2E      -0.075400
      6 C04          4.1570    -0.5390    -0.4190 c6         1 M2E      -0.102400
      7 C05          3.1550    -1.1230     0.6050 c6         1 M2E       0.087000
      8 N06          1.7890    -0.5580     0.4270 n          1 M2E      -0.396800
      9 C07          1.7660     0.9360     0.4850 c6         1 M2E       0.060000
     10 C08          0.7650    -1.3030    -0.2060 c          1 M2E       0.612700
     11 O09          1.0200    -2.3540    -0.7820 o          1 M2E      -0.587100
     12 C12         -2.4710     0.2350     1.2000 ca         1 M2E      -0.111000
     13 C13         -3.3770    -0.0530     0.1680 ca         1 M2E       0.132000
     14 Cl1         -5.0580     0.4420     0.3110 cl         1 M2E      -0.196000
     15 C15         -2.9450    -0.7470    -0.9720 ca         1 M2E      -0.111000
     16 C16         -1.6010    -1.1460    -1.0860 ca         1 M2E      -0.069500
     17 H1          -0.4460     0.0460     1.9120 ha         1 M2E       0.128500
     18 H3           2.4140     1.3270    -1.5450 h1         1 M2E       0.035700
     19 H4           4.8500     1.4080    -1.1150 hc         1 M2E       0.056700
     20 H5           4.5860     1.3230     0.6260 hc         1 M2E       0.056700
     21 H6           3.8760    -0.8600    -1.4310 hc         1 M2E       0.054700
     22 H7           5.1610    -0.9400    -0.2280 hc         1 M2E       0.054700
     23 H8           3.1360    -2.2190     0.5200 h1         1 M2E       0.064200
     24 H9           3.5010    -0.8910     1.6230 h1         1 M2E       0.064200
     25 H10          2.0270     1.2540     1.5050 h1         1 M2E       0.060700
     26 H11          0.7610     1.3210     0.2680 h1         1 M2E       0.060700
     27 H12         -2.8120     0.7590     2.0890 ha         1 M2E       0.133500
     28 H13         -3.6510    -0.9790    -1.7650 ha         1 M2E       0.133500
     29 H14         -1.2800    -1.6860    -1.9750 ha         1 M2E       0.128500
     30 H2           1.9250     3.3490    -0.7030 ho         1 M2E       0.445000
@<TRIPOS>BOND
     1     1     2 ar  
     2     1    10 1   
     3     1    16 ar  
     4     2    12 ar  
     5     2    17 1   
     6     3     4 1   
     7     3    30 1   
     8     4     5 1   
     9     4     9 1   
    10     4    18 1   
    11     5     6 1   
    12     5    19 1   
    13     5    20 1   
    14     6     7 1   
    15     6    21 1   
    16     6    22 1   
    17     7     8 1   
    18     7    23 1   
    19     7    24 1   
    20     8     9 1   
    21     8    10 1   
    22     9    25 1   
    23     9    26 1   
    24    10    11 2   
    25    12    13 ar  
    26    12    27 1   
    27    13    14 1   
    28    13    15 ar  
    29    15    16 ar  
    30    15    28 1   
    31    16    29 1   
@<TRIPOS>SUBSTRUCTURE
     1 M2E         1 TEMP              0 ****  ****    0 ROOT
