@<TRIPOS>MOLECULE
M2F
   37    38     1     0     0
SMALL
No Charge or Current Charge


@<TRIPOS>ATOM
      1 O1B         -2.8060     2.9750     1.4360 o          1 M2F      -0.379500
      2 N1B         -2.0930     2.5920     0.5000 no         1 M2F       0.707200
      3 O2B         -1.4470     3.3570    -0.2270 o          1 M2F      -0.379500
      4 C6B         -2.2220     1.1740     0.0800 ca         1 M2F      -0.228200
      5 C1A         -3.4990     0.5710     0.0870 ca         1 M2F       0.040000
      6 C2B         -3.6550    -0.7740    -0.3150 ca         1 M2F      -0.229200
      7 N1C         -5.0080    -1.4120    -0.3140 no         1 M2F       0.704200
      8 O3C         -5.9750    -0.7310     0.0490 o          1 M2F      -0.392000
      9 O2C         -5.0980    -2.5920    -0.6760 o          1 M2F      -0.392000
     10 C3B         -2.5190    -1.5080    -0.7180 ca         1 M2F       0.024000
     11 C4B         -1.2500    -0.9080    -0.7140 ca         1 M2F      -0.205000
     12 C5B         -1.0870     0.4350    -0.3090 ca         1 M2F       0.252100
     13 O1           0.1520     1.0500    -0.2680 os         1 M2F      -0.288100
     14 C1           1.3660     0.3470    -0.5870 c6         1 M2F       0.369300
     15 O5           1.6070    -0.6640     0.4170 os         1 M2F      -0.453000
     16 C2           2.5660     1.3400    -0.6390 c6         1 M2F       0.153300
     17 F2           2.6550     2.0400     0.5900 f          1 M2F      -0.223000
     18 C3           3.8980     0.5620    -0.8810 c6         1 M2F       0.106300
     19 O3           5.0580     1.4240    -0.8420 oh         1 M2F      -0.640000
     20 C4           4.0570    -0.5820     0.1650 c6         1 M2F       0.143300
     21 O4           5.2510    -1.3330    -0.1270 oh         1 M2F      -0.717000
     22 C5           2.7790    -1.4820     0.1640 c6         1 M2F       0.178300
     23 C6           2.8370    -2.6080     1.2490 c3         1 M2F       0.171600
     24 O6           1.6440    -3.4220     1.2920 oh         1 M2F      -0.719000
     25 H1A         -4.3670     1.1560     0.3960 ha         1 M2F       0.182000
     26 H3B         -2.6090    -2.5480    -1.0330 ha         1 M2F       0.160000
     27 H4B         -0.4030    -1.5130    -1.0210 ha         1 M2F       0.158000
     28 H1           1.2600    -0.1270    -1.5740 h2         1 M2F       0.044700
     29 H2           2.4010     2.0800    -1.4340 h1         1 M2F       0.080700
     30 H5           2.6710    -1.9620    -0.8200 h1         1 M2F       0.058700
     31 H3           3.8270     0.0980    -1.8770 h1         1 M2F       0.046700
     32 HA           4.9420     2.1130    -1.5360 ho         1 M2F       0.457000
     33 H4           4.1410    -0.1230     1.1630 h1         1 M2F       0.076700
     34 HB           5.9210    -0.6510    -0.3800 ho         1 M2F       0.529000
     35 H61C         3.7130    -3.2390     1.0420 h1         1 M2F       0.045200
     36 H62C         3.0050    -2.1310     2.2240 h1         1 M2F       0.045200
     37 H6           1.7500    -4.0480     2.0470 ho         1 M2F       0.513000
@<TRIPOS>BOND
     1     1     2 1   
     2     2     3 1   
     3     2     4 1   
     4     4     5 ar  
     5     4    12 ar  
     6     5     6 ar  
     7     5    25 1   
     8     6     7 1   
     9     6    10 ar  
    10     7     8 1   
    11     7     9 1   
    12    10    11 ar  
    13    10    26 1   
    14    11    12 ar  
    15    11    27 1   
    16    12    13 1   
    17    13    14 1   
    18    14    15 1   
    19    14    16 1   
    20    14    28 1   
    21    15    22 1   
    22    16    17 1   
    23    16    18 1   
    24    16    29 1   
    25    18    19 1   
    26    18    20 1   
    27    18    31 1   
    28    19    32 1   
    29    20    21 1   
    30    20    22 1   
    31    20    33 1   
    32    21    34 1   
    33    22    23 1   
    34    22    30 1   
    35    23    24 1   
    36    23    35 1   
    37    23    36 1   
    38    24    37 1   
@<TRIPOS>SUBSTRUCTURE
     1 M2F         1 TEMP              0 ****  ****    0 ROOT
