@<TRIPOS>MOLECULE
M2F
   37    38     1     0     0
SMALL
bcc


@<TRIPOS>ATOM
      1 O1B         -2.8090     3.0020     1.1850 o          1 M2F      -0.189500
      2 N1B         -2.0620     2.5600     0.3450 no         1 M2F       0.327200
      3 O2B         -1.2660     3.2120    -0.2800 o          1 M2F      -0.189500
      4 C6B         -2.1630     1.1380     0.0510 ca         1 M2F      -0.228200
      5 C1A         -3.4300     0.5940     0.0150 ca         1 M2F       0.022000
      6 C2B         -3.5650    -0.7410    -0.3130 ca         1 M2F      -0.229200
      7 N1C         -4.8930    -1.3210    -0.3780 no         1 M2F       0.324200
      8 O3C         -5.8350    -0.6090    -0.1220 o          1 M2F      -0.202000
      9 O2C         -4.9840    -2.4850    -0.6850 o          1 M2F      -0.202000
     10 C3B         -2.4540    -1.5310    -0.5690 ca         1 M2F       0.006000
     11 C4B         -1.1900    -0.9840    -0.4940 ca         1 M2F      -0.223000
     12 C5B         -1.0150     0.3680    -0.1920 ca         1 M2F       0.252100
     13 O1           0.1640     0.9720    -0.0790 os         1 M2F      -0.264900
     14 C1           1.3350     0.3120    -0.4690 c6         1 M2F       0.322900
     15 O5           1.6160    -0.6550     0.4870 os         1 M2F      -0.406600
     16 C2           2.4510     1.3370    -0.5370 c6         1 M2F       0.134600
     17 F2           2.5540     1.9650     0.6920 f          1 M2F      -0.204300
     18 C3           3.7500     0.6100    -0.8570 c6         1 M2F       0.083100
     19 O3           4.8600     1.4660    -0.7980 oh         1 M2F      -0.577800
     20 C4           3.9920    -0.5470     0.1130 c6         1 M2F       0.120100
     21 O4           5.0740    -1.3370    -0.3070 oh         1 M2F      -0.594800
     22 C5           2.7510    -1.4420     0.1560 c6         1 M2F       0.155100
     23 C6           2.8570    -2.5400     1.1900 c3         1 M2F       0.148400
     24 O6           1.7140    -3.3540     1.0920 oh         1 M2F      -0.596800
     25 H1A         -4.2930     1.2120     0.2140 ha         1 M2F       0.200000
     26 H3B         -2.5560    -2.5790    -0.8100 ha         1 M2F       0.178000
     27 H4B         -0.3440    -1.6370    -0.6470 ha         1 M2F       0.176000
     28 H1           1.2040    -0.1360    -1.4690 h2         1 M2F       0.044700
     29 H2           2.2330     2.0950    -1.2950 h1         1 M2F       0.080700
     30 H5           2.6100    -1.8970    -0.8370 h1         1 M2F       0.058700
     31 H3           3.6340     0.1800    -1.8630 h1         1 M2F       0.046700
     32 HA           4.9330     1.9440    -1.6300 ho         1 M2F       0.418000
     33 H4           4.1650    -0.1390     1.1200 h1         1 M2F       0.076700
     34 HB           5.8670    -0.7910    -0.2960 ho         1 M2F       0.430000
     35 H61C         3.7770    -3.1030     1.0020 h1         1 M2F       0.045200
     36 H62C         2.9550    -2.0840     2.1850 h1         1 M2F       0.045200
     37 H6           1.8300    -4.0990     1.6890 ho         1 M2F       0.414000
@<TRIPOS>BOND
     1     1     2 1   
     2     2     3 1   
     3     2     4 1   
     4     4     5 ar  
     5     4    12 ar  
     6     5     6 ar  
     7     5    25 1   
     8     6     7 1   
     9     6    10 ar  
    10     7     8 1   
    11     7     9 1   
    12    10    11 ar  
    13    10    26 1   
    14    11    12 ar  
    15    11    27 1   
    16    12    13 1   
    17    13    14 1   
    18    14    15 1   
    19    14    16 1   
    20    14    28 1   
    21    15    22 1   
    22    16    17 1   
    23    16    18 1   
    24    16    29 1   
    25    18    19 1   
    26    18    20 1   
    27    18    31 1   
    28    19    32 1   
    29    20    21 1   
    30    20    22 1   
    31    20    33 1   
    32    21    34 1   
    33    22    23 1   
    34    22    30 1   
    35    23    24 1   
    36    23    35 1   
    37    23    36 1   
    38    24    37 1   
@<TRIPOS>SUBSTRUCTURE
     1 M2F         1 TEMP              0 ****  ****    0 ROOT
