@<TRIPOS>MOLECULE
M2G
   42    44     1     0     0
SMALL
No Charge or Current Charge


@<TRIPOS>ATOM
      1 P            0.5810     2.2030    -3.9880 p5         1 M2G       1.267900
      2 OP1          0.8730     1.7300    -5.3680 o          1 M2G      -0.921833
      3 OP2         -0.0020     3.5710    -4.0600 o          1 M2G      -0.921833
      4 OP3          1.8350     2.2540    -3.1890 o          1 M2G      -0.921833
      5 O5          -0.5010     1.2270    -3.3010 os         1 M2G      -0.561400
      6 C5          -0.2820    -0.1930    -3.1900 c3         1 M2G       0.258600
      7 C4           0.7200    -0.5470    -2.0510 c5         1 M2G       0.146300
      8 O4           0.2130    -0.1360    -0.7600 os         1 M2G      -0.398000
      9 C3           0.9330    -2.0740    -1.8450 c5         1 M2G       0.083300
     10 O3           1.7410    -2.6930    -2.8620 oh         1 M2G      -0.695000
     11 C2           1.6690    -2.0570    -0.4720 c5         1 M2G       0.082300
     12 O2           3.0600    -1.7920    -0.6990 oh         1 M2G      -0.719000
     13 C1           0.9200    -0.8790     0.2650 c5         1 M2G       0.299300
     14 N9          -0.0330    -1.2590     1.3070 na         1 M2G      -0.176500
     15 C8          -0.9040    -2.3320     1.2800 cc         1 M2G       0.444400
     16 N7          -1.5960    -2.4280     2.4140 nd         1 M2G      -0.628000
     17 C7          -1.1400    -1.3810     3.2080 cd         1 M2G       0.090500
     18 C6          -1.5190    -0.9620     4.5880 c          1 M2G       0.520500
     19 O6          -2.3580    -1.5050     5.2960 o          1 M2G      -0.553000
     20 N1          -0.8160     0.1260     5.0110 ns         1 M2G      -0.460400
     21 C10          0.1290     0.7650     4.2700 cd         1 M2G       0.713800
     22 N2           0.7650     1.8620     4.8490 nh         1 M2G      -0.777600
     23 N3           0.4940     0.4250     3.0390 nc         1 M2G      -0.681100
     24 C9          -0.1790    -0.6680     2.5360 cc         1 M2G       0.122400
     25 CM1          1.7640     2.6620     4.0960 c3         1 M2G       0.230100
     26 CM2          0.4930     2.2880     6.2440 c3         1 M2G       0.230100
     27 H5           0.1010    -0.5970    -4.1360 h1         1 M2G       0.002200
     28 H5'         -1.2360    -0.6970    -2.9870 h1         1 M2G       0.002200
     29 H4           1.6800    -0.0510    -2.2360 h1         1 M2G       0.078700
     30 H3          -0.0390    -2.5820    -1.7620 h1         1 M2G       0.052700
     31 HO3          1.4110    -3.6150    -2.9860 ho         1 M2G       0.487000
     32 H2           1.5500    -3.0120     0.0580 h1         1 M2G       0.039700
     33 HO2          3.1930    -2.0770    -1.6390 ho         1 M2G       0.519000
     34 H1           1.6570    -0.2290     0.7520 h2         1 M2G       0.100700
     35 H8          -0.9900    -2.9890     0.4220 h5         1 M2G       0.095100
     36 HN1         -1.0270     0.4610     5.9360 hn         1 M2G       0.306500
     37 HM11         2.1080     3.5300     4.6730 h1         1 M2G       0.040033
     38 HM12         2.6410     2.0480     3.8530 h1         1 M2G       0.040033
     39 HM13         1.3300     3.0350     3.1590 h1         1 M2G       0.040033
     40 HM21         1.1460     3.1170     6.5490 h1         1 M2G       0.040033
     41 HM22        -0.5480     2.6240     6.3450 h1         1 M2G       0.040033
     42 HM23         0.6630     1.4560     6.9400 h1         1 M2G       0.040033
@<TRIPOS>BOND
     1     1     2 1   
     2     1     3 1   
     3     1     4 1   
     4     1     5 1   
     5     5     6 1   
     6     6     7 1   
     7     6    27 1   
     8     6    28 1   
     9     7     8 1   
    10     7     9 1   
    11     7    29 1   
    12     8    13 1   
    13     9    10 1   
    14     9    11 1   
    15     9    30 1   
    16    10    31 1   
    17    11    12 1   
    18    11    13 1   
    19    11    32 1   
    20    12    33 1   
    21    13    14 1   
    22    13    34 1   
    23    14    15 1   
    24    14    24 1   
    25    15    16 2   
    26    15    35 1   
    27    16    17 1   
    28    17    18 1   
    29    17    24 2   
    30    18    19 2   
    31    18    20 1   
    32    20    21 1   
    33    20    36 1   
    34    21    22 1   
    35    21    23 2   
    36    22    25 1   
    37    22    26 1   
    38    23    24 1   
    39    25    37 1   
    40    25    38 1   
    41    25    39 1   
    42    26    40 1   
    43    26    41 1   
    44    26    42 1   
@<TRIPOS>SUBSTRUCTURE
     1 M2G         1 TEMP              0 ****  ****    0 ROOT
