@<TRIPOS>MOLECULE
M2G
   42    44     1     0     0
SMALL
bcc


@<TRIPOS>ATOM
      1 P           -0.7320     0.9610    -5.2310 p5         1 M2G       1.267900
      2 OP1         -2.0390     0.2050    -5.0220 o          1 M2G      -0.921833
      3 OP2         -0.8690     2.4690    -5.3870 o          1 M2G      -0.921833
      4 OP3          0.2250     0.2940    -6.2140 o          1 M2G      -0.921833
      5 O5           0.0670     0.8730    -3.7200 os         1 M2G      -0.538200
      6 C5           0.2460    -0.3920    -3.1710 c3         1 M2G       0.235400
      7 C4           1.2650    -0.3300    -2.0570 c5         1 M2G       0.123100
      8 O4           0.7850     0.4990    -0.9990 os         1 M2G      -0.351600
      9 C3           1.5470    -1.6780    -1.4000 c5         1 M2G       0.060100
     10 O3           2.5380    -2.3670    -2.1120 oh         1 M2G      -0.572800
     11 C2           1.9880    -1.2600     0.0080 c5         1 M2G       0.059100
     12 O2           3.3290    -0.8480     0.0020 oh         1 M2G      -0.596800
     13 C1           1.1200    -0.0240     0.2530 c5         1 M2G       0.246800
     14 N9          -0.0970    -0.3220     0.9880 na         1 M2G      -0.197900
     15 C8          -1.2570    -0.8920     0.5230 cc         1 M2G       0.444400
     16 N7          -2.1600    -1.0230     1.4460 nd         1 M2G      -0.628000
     17 C7          -1.5770    -0.5190     2.5790 cd         1 M2G       0.155800
     18 C6          -2.0790    -0.3820     3.9030 c          1 M2G       0.663000
     19 O6          -3.1680    -0.7050     4.3470 o          1 M2G      -0.628500
     20 N1          -1.1230     0.2140     4.7380 ns         1 M2G      -0.527400
     21 C10          0.1320     0.6230     4.3720 cd         1 M2G       0.713800
     22 N2           0.9140     1.1790     5.3090 nh         1 M2G      -0.777600
     23 N3           0.5860     0.4840     3.1470 nc         1 M2G      -0.681100
     24 C9          -0.2940    -0.0770     2.3120 cc         1 M2G       0.107800
     25 CM1          2.2470     1.6030     4.9210 c3         1 M2G       0.230100
     26 CM2          0.4320     1.4140     6.6550 c3         1 M2G       0.230100
     27 H5           0.6190    -1.1180    -3.9090 h1         1 M2G       0.002200
     28 H5'         -0.6930    -0.8090    -2.7750 h1         1 M2G       0.002200
     29 H4           2.2040     0.0850    -2.4480 h1         1 M2G       0.078700
     30 H3           0.6240    -2.2690    -1.3400 h1         1 M2G       0.052700
     31 HO3          2.5010    -3.2990    -1.8740 ho         1 M2G       0.388000
     32 H2           1.8080    -2.0360     0.7620 h1         1 M2G       0.039700
     33 HO2          3.7960    -1.3890    -0.6470 ho         1 M2G       0.420000
     34 H1           1.6610     0.7090     0.8580 h2         1 M2G       0.100700
     35 H8          -1.3850    -1.1760    -0.5100 h5         1 M2G       0.095100
     36 HN1         -1.4200     0.3310     5.6980 hn         1 M2G       0.306500
     37 HM11         2.7650     1.9660     5.8030 h1         1 M2G       0.040033
     38 HM12         2.8200     0.7760     4.5030 h1         1 M2G       0.040033
     39 HM13         2.2190     2.4040     4.1820 h1         1 M2G       0.040033
     40 HM21         1.2070     1.9180     7.2230 h1         1 M2G       0.040033
     41 HM22        -0.4520     2.0560     6.6670 h1         1 M2G       0.040033
     42 HM23         0.1990     0.4830     7.1780 h1         1 M2G       0.040033
@<TRIPOS>BOND
     1     1     2 1   
     2     1     3 1   
     3     1     4 1   
     4     1     5 1   
     5     5     6 1   
     6     6     7 1   
     7     6    27 1   
     8     6    28 1   
     9     7     8 1   
    10     7     9 1   
    11     7    29 1   
    12     8    13 1   
    13     9    10 1   
    14     9    11 1   
    15     9    30 1   
    16    10    31 1   
    17    11    12 1   
    18    11    13 1   
    19    11    32 1   
    20    12    33 1   
    21    13    14 1   
    22    13    34 1   
    23    14    15 1   
    24    14    24 1   
    25    15    16 2   
    26    15    35 1   
    27    16    17 1   
    28    17    18 1   
    29    17    24 2   
    30    18    19 2   
    31    18    20 1   
    32    20    21 1   
    33    20    36 1   
    34    21    22 1   
    35    21    23 2   
    36    22    25 1   
    37    22    26 1   
    38    23    24 1   
    39    25    37 1   
    40    25    38 1   
    41    25    39 1   
    42    26    40 1   
    43    26    41 1   
    44    26    42 1   
@<TRIPOS>SUBSTRUCTURE
     1 M2G         1 TEMP              0 ****  ****    0 ROOT
