@<TRIPOS>MOLECULE
M2H
   17    17     1     0     0
SMALL
abcg2


@<TRIPOS>ATOM
      1 C01          3.0550     0.7450     0.0120 c3         1 M2H      -0.033800
      2 C02          1.6650     0.2200     0.0220 cc         1 M2H      -0.134300
      3 C03          1.2070    -1.0850     0.0570 cd         1 M2H      -0.190000
      4 C04         -0.2010    -1.0620     0.0630 cd         1 M2H      -0.069300
      5 C05         -1.1270    -2.2280     0.0950 c3         1 M2H      -0.025800
      6 C06         -0.5580     0.2760     0.0300 cc         1 M2H      -0.134000
      7 N07          0.5880     1.0310     0.0050 na         1 M2H      -0.082000
      8 C08         -1.8430     0.8430     0.0150 cg         1 M2H       0.351000
      9 N09         -2.9100     1.2880     0.0060 n1         1 M2H      -0.458000
     10 H1           3.2250     1.4170    -0.8300 hc         1 M2H       0.050367
     11 H2           3.2800     1.2990     0.9250 hc         1 M2H       0.050367
     12 H3           3.7640    -0.0770    -0.0640 hc         1 M2H       0.050367
     13 H4           1.8350    -1.9620     0.0760 ha         1 M2H       0.136000
     14 H5          -0.9750    -2.8760    -0.7690 hc         1 M2H       0.045367
     15 H6          -0.9650    -2.8370     0.9850 hc         1 M2H       0.045367
     16 H7          -2.1710    -1.9170     0.0940 hc         1 M2H       0.045367
     17 H8           0.6170     2.0380    -0.0180 hn         1 M2H       0.354000
@<TRIPOS>BOND
     1     1     2 1   
     2     1    10 1   
     3     1    11 1   
     4     1    12 1   
     5     2     3 2   
     6     2     7 1   
     7     3     4 1   
     8     3    13 1   
     9     4     5 1   
    10     4     6 2   
    11     5    14 1   
    12     5    15 1   
    13     5    16 1   
    14     6     7 1   
    15     6     8 1   
    16     7    17 1   
    17     8     9 3   
@<TRIPOS>SUBSTRUCTURE
     1 M2H         1 TEMP              0 ****  ****    0 ROOT
