@<TRIPOS>MOLECULE
M2H
   17    17     1     0     0
SMALL
No Charge or Current Charge


@<TRIPOS>ATOM
      1 C01          3.1070     0.7180     0.0900 c3         1 M2H      -0.033800
      2 C02          1.6830     0.2340     0.0580 cc         1 M2H      -0.134300
      3 C03          1.1930    -1.0400     0.1420 cd         1 M2H      -0.190000
      4 C04         -0.2180    -1.0180     0.0670 cd         1 M2H      -0.069300
      5 C05         -1.1120    -2.2310     0.1250 c3         1 M2H      -0.025800
      6 C06         -0.6030     0.2920    -0.0650 cc         1 M2H      -0.134000
      7 N07          0.5650     1.0580    -0.0710 na         1 M2H      -0.082000
      8 C08         -1.9240     0.8120    -0.1780 cg         1 M2H       0.351000
      9 N09         -2.9970     1.2640    -0.2730 n1         1 M2H      -0.458000
     10 H1           3.3610     1.2500    -0.8350 hc         1 M2H       0.050367
     11 H2           3.2700     1.4020     0.9310 hc         1 M2H       0.050367
     12 H3           3.8060    -0.1200     0.1980 hc         1 M2H       0.050367
     13 H4           1.7990    -1.9340     0.2500 ha         1 M2H       0.136000
     14 H5          -1.7100    -2.3220    -0.7890 hc         1 M2H       0.045367
     15 H6          -0.5270    -3.1520     0.2350 hc         1 M2H       0.045367
     16 H7          -1.8010    -2.1700     0.9750 hc         1 M2H       0.045367
     17 H8           0.5960     2.0700    -0.1560 hn         1 M2H       0.354000
@<TRIPOS>BOND
     1     1     2 1   
     2     1    10 1   
     3     1    11 1   
     4     1    12 1   
     5     2     3 2   
     6     2     7 1   
     7     3     4 1   
     8     3    13 1   
     9     4     5 1   
    10     4     6 2   
    11     5    14 1   
    12     5    15 1   
    13     5    16 1   
    14     6     7 1   
    15     6     8 1   
    16     7    17 1   
    17     8     9 3   
@<TRIPOS>SUBSTRUCTURE
     1 M2H         1 TEMP              0 ****  ****    0 ROOT
