@<TRIPOS>MOLECULE
M2I
   38    41     1     0     0
SMALL
abcg2


@<TRIPOS>ATOM
      1 C02         22.0120    18.2650     5.5220 c          1 M2I       0.624700
      2 C03         21.6930    19.6520     5.0670 ca         1 M2I      -0.160600
      3 C04         22.5400    20.7190     5.3520 ca         1 M2I      -0.055000
      4 C05         22.2710    21.9750     4.8350 ca         1 M2I      -0.121000
      5 C06         21.1480    22.1820     4.0480 ca         1 M2I      -0.039000
      6 C07         20.3040    21.1170     3.7610 ca         1 M2I      -0.201300
      7 C08         19.0680    21.3160     2.9380 c3         1 M2I       0.359300
      8 C12         20.5840    19.8490     4.2550 ca         1 M2I      -0.017000
      9 C14         22.6520    16.8990     7.4540 ca         1 M2I      -0.038000
     10 C15         22.3510    16.9340     8.8120 ca         1 M2I      -0.162300
     11 C16         22.6700    15.8780     9.6420 ca         1 M2I      -0.056000
     12 C17         23.3120    14.7710     9.0970 ca         1 M2I      -0.130000
     13 C18         23.6140    14.7410     7.7420 ca         1 M2I      -0.080000
     14 C19         23.2890    15.7980     6.8970 ca         1 M2I      -0.110000
     15 C20         21.6330    18.2170     9.1440 c5         1 M2I      -0.053700
     16 C21         20.1800    17.9950     9.3840 cc         1 M2I       0.391800
     17 C26         21.9180    19.0770     7.8950 c5         1 M2I       0.103000
     18 F09         19.0400    22.5100     2.3400 f          1 M2I      -0.109667
     19 F10         18.9530    20.3890     1.9790 f          1 M2I      -0.109667
     20 F11         17.9590    21.2290     3.6870 f          1 M2I      -0.109667
     21 N13         22.2520    18.1020     6.8480 n          1 M2I      -0.230400
     22 N22         19.3560    17.2640     8.6300 na         1 M2I      -0.204700
     23 N23         18.1390    17.3170     9.1440 nc         1 M2I      -0.196800
     24 N24         18.2190    18.0550    10.1790 nd         1 M2I      -0.043000
     25 N25         19.4650    18.4940    10.3630 nd         1 M2I      -0.385000
     26 O01         22.0610    17.3510     4.7200 o          1 M2I      -0.559100
     27 H1          23.4240    20.5700     5.9600 ha         1 M2I       0.126000
     28 H2          22.9390    22.7990     5.0450 ha         1 M2I       0.128000
     29 H3          20.9490    23.1720     3.6620 ha         1 M2I       0.137000
     30 H4          19.9370    19.0110     4.0240 ha         1 M2I       0.143000
     31 H5          22.4250    15.9140    10.6960 ha         1 M2I       0.127000
     32 H6          23.5770    13.9340     9.7300 ha         1 M2I       0.123000
     33 H7          24.1170    13.8780     7.3260 ha         1 M2I       0.121000
     34 H8          23.5410    15.7510     5.8500 ha         1 M2I       0.147000
     35 H9          22.0330    18.7040    10.0330 hc         1 M2I       0.109700
     36 H10         22.7700    19.7270     8.0960 h1         1 M2I       0.069700
     37 H11         21.0730    19.6960     7.6040 h1         1 M2I       0.069700
     38 H12         19.5380    16.7230     7.7950 hn         1 M2I       0.395000
@<TRIPOS>BOND
     1     1     2 1   
     2     1    21 1   
     3     1    26 2   
     4     2     3 ar  
     5     2     8 ar  
     6     3     4 ar  
     7     3    27 1   
     8     4     5 ar  
     9     4    28 1   
    10     5     6 ar  
    11     5    29 1   
    12     6     7 1   
    13     6     8 ar  
    14     7    18 1   
    15     7    19 1   
    16     7    20 1   
    17     8    30 1   
    18     9    10 ar  
    19     9    14 ar  
    20     9    21 1   
    21    10    11 ar  
    22    10    15 1   
    23    11    12 ar  
    24    11    31 1   
    25    12    13 ar  
    26    12    32 1   
    27    13    14 ar  
    28    13    33 1   
    29    14    34 1   
    30    15    16 1   
    31    15    17 1   
    32    15    35 1   
    33    16    22 1   
    34    16    25 2   
    35    17    21 1   
    36    17    36 1   
    37    17    37 1   
    38    22    23 1   
    39    22    38 1   
    40    23    24 2   
    41    24    25 1   
@<TRIPOS>SUBSTRUCTURE
     1 M2I         1 TEMP              0 ****  ****    0 ROOT
