@<TRIPOS>MOLECULE
M2I
   38    41     1     0     0
SMALL
No Charge or Current Charge


@<TRIPOS>ATOM
      1 C02         21.6270    18.2890     5.5040 c          1 M2I       0.624700
      2 C03         21.5250    19.7020     4.9740 ca         1 M2I      -0.160600
      3 C04         22.3830    20.7290     5.4240 ca         1 M2I      -0.055000
      4 C05         22.2700    22.0260     4.9010 ca         1 M2I      -0.121000
      5 C06         21.3160    22.3110     3.9110 ca         1 M2I      -0.039000
      6 C07         20.4760    21.2900     3.4190 ca         1 M2I      -0.201300
      7 C08         19.4340    21.5850     2.3350 c3         1 M2I       0.359300
      8 C12         20.5910    19.9890     3.9560 ca         1 M2I      -0.017000
      9 C14         22.4880    16.9240     7.4470 ca         1 M2I      -0.038000
     10 C15         22.3470    16.9870     8.8160 ca         1 M2I      -0.162300
     11 C16         22.8180    15.9460     9.6340 ca         1 M2I      -0.056000
     12 C17         23.4340    14.8330     9.0290 ca         1 M2I      -0.130000
     13 C18         23.5770    14.7730     7.6260 ca         1 M2I      -0.080000
     14 C19         23.1050    15.8280     6.8200 ca         1 M2I      -0.110000
     15 C20         21.6400    18.2610     9.2630 c5         1 M2I      -0.053700
     16 C21         20.3270    17.7870     9.8540 cc         1 M2I       0.391800
     17 C26         21.4170    19.0420     7.9000 c5         1 M2I       0.103000
     18 F09         19.7570    22.6610     1.5810 f          1 M2I      -0.109667
     19 F10         19.2810    20.5480     1.4800 f          1 M2I      -0.109667
     20 F11         18.2200    21.8330     2.8760 f          1 M2I      -0.109667
     21 N13         21.9590    18.1040     6.8710 n          1 M2I      -0.230400
     22 N22         19.5210    16.8390     9.2920 na         1 M2I      -0.204700
     23 N23         18.4070    16.6590    10.0440 nc         1 M2I      -0.196800
     24 N24         18.5470    17.4960    11.0370 nd         1 M2I      -0.043000
     25 N25         19.7210    18.2090    10.9440 nd         1 M2I      -0.385000
     26 O01         21.4940    17.3390     4.7420 o          1 M2I      -0.559100
     27 H1          23.1580    20.5230     6.1600 ha         1 M2I       0.126000
     28 H2          22.9300    22.8140     5.2580 ha         1 M2I       0.128000
     29 H3          21.2420    23.3260     3.5250 ha         1 M2I       0.137000
     30 H4          19.9390    19.1960     3.5920 ha         1 M2I       0.143000
     31 H5          22.7070    15.9950    10.7160 ha         1 M2I       0.127000
     32 H6          23.8030    14.0170     9.6470 ha         1 M2I       0.123000
     33 H7          24.0590    13.9130     7.1660 ha         1 M2I       0.121000
     34 H8          23.2320    15.7870     5.7420 ha         1 M2I       0.147000
     35 H9          22.2230    18.8430     9.9850 hc         1 M2I       0.109700
     36 H10         21.9680    19.9890     7.9180 h1         1 M2I       0.069700
     37 H11         20.3580    19.2700     7.7200 h1         1 M2I       0.069700
     38 H12         19.7040    16.3110     8.4470 hn         1 M2I       0.395000
@<TRIPOS>BOND
     1     1     2 1   
     2     1    21 1   
     3     1    26 2   
     4     2     3 ar  
     5     2     8 ar  
     6     3     4 ar  
     7     3    27 1   
     8     4     5 ar  
     9     4    28 1   
    10     5     6 ar  
    11     5    29 1   
    12     6     7 1   
    13     6     8 ar  
    14     7    18 1   
    15     7    19 1   
    16     7    20 1   
    17     8    30 1   
    18     9    10 ar  
    19     9    14 ar  
    20     9    21 1   
    21    10    11 ar  
    22    10    15 1   
    23    11    12 ar  
    24    11    31 1   
    25    12    13 ar  
    26    12    32 1   
    27    13    14 ar  
    28    13    33 1   
    29    14    34 1   
    30    15    16 1   
    31    15    17 1   
    32    15    35 1   
    33    16    22 1   
    34    16    25 2   
    35    17    21 1   
    36    17    36 1   
    37    17    37 1   
    38    22    23 1   
    39    22    38 1   
    40    23    24 2   
    41    24    25 1   
@<TRIPOS>SUBSTRUCTURE
     1 M2I         1 TEMP              0 ****  ****    0 ROOT
