@<TRIPOS>MOLECULE
M2J
  113   117     1     0     0
SMALL
bcc


@<TRIPOS>ATOM
      1 C4           6.1800     3.3500     1.1160 c6         1 M2J       0.087100
      2 C5           4.8950     3.8090     0.4230 c6         1 M2J       0.126100
      3 C6           5.0570     5.1420    -0.2730 c3         1 M2J       0.146400
      4 C3           5.9200     1.9810     1.7440 c6         1 M2J       0.135100
      5 OAI          5.9560    -1.6130     3.5130 oh         1 M2J      -0.593800
      6 CAB          5.6570    -2.2630     2.3000 c6         1 M2J       0.088100
      7 CAC          4.2610    -2.8830     2.3180 c6         1 M2J       0.132100
      8 OAJ          4.1230    -3.8220     3.3560 oh         1 M2J      -0.575800
      9 CAD          3.9720    -3.5560     0.9840 c6         1 M2J       0.127100
     10 OAK          4.8280    -4.6660     0.8430 oh         1 M2J      -0.579800
     11 CAE          4.1560    -2.5170    -0.1230 c6         1 M2J       0.110100
     12 CAF          3.9330    -3.0720    -1.5140 c3         1 M2J      -0.088100
     13 OAG          5.4690    -1.9660    -0.0880 os         1 M2J      -0.409600
     14 CAA          5.8110    -1.3260     1.0990 c6         1 M2J       0.317900
     15 O2           5.0190    -0.2000     1.3520 os         1 M2J      -0.450600
     16 C2           5.3840     0.9960     0.7050 c6         1 M2J       0.137100
     17 O3           7.0660     1.4200     2.3230 oh         1 M2J      -0.569800
     18 O4           7.2560     3.2350     0.2170 oh         1 M2J      -0.563800
     19 O6           3.7950     5.5890    -0.7060 oh         1 M2J      -0.587800
     20 O5           4.4970     2.8490    -0.5320 os         1 M2J      -0.405600
     21 C1           4.1560     1.6150     0.0360 c6         1 M2J       0.348900
     22 O1           3.7240     0.7760    -0.9700 os         1 M2J      -0.366600
     23 CAY          2.4820     1.0850    -1.5670 c6         1 M2J       0.146100
     24 CAX          1.3750     0.1880    -1.0090 c6         1 M2J       0.053700
     25 NBJ          1.1360     0.4550     0.3840 ns         1 M2J      -0.560900
     26 CBC          0.8940    -0.5010     1.3060 c          1 M2J       0.686100
     27 OBI          0.9980    -1.6960     1.0790 o          1 M2J      -0.597100
     28 CBD          0.5560     0.0190     2.6800 c3         1 M2J      -0.176100
     29 CAZ          2.6160     0.8890    -3.0740 c6         1 M2J       0.116100
     30 OBF          3.5360     1.8340    -3.5530 oh         1 M2J      -0.569800
     31 CBA          1.2420     1.0540    -3.7420 c6         1 M2J       0.120100
     32 CBB          1.2930     0.7770    -5.2290 c3         1 M2J       0.146400
     33 OBH          0.0240     1.0270    -5.7790 oh         1 M2J      -0.586800
     34 OBG          0.3190     0.1520    -3.1710 os         1 M2J      -0.423600
     35 CAW          0.0890     0.3970    -1.8120 c6         1 M2J       0.332900
     36 OBE         -0.8540    -0.4940    -1.3600 os         1 M2J      -0.381600
     37 CBM         -2.2120    -0.1160    -1.4480 c6         1 M2J       0.120100
     38 CBL         -2.9080    -0.6130    -0.1920 c6         1 M2J       0.120100
     39 OBR         -2.3740     0.0820     0.9050 oh         1 M2J      -0.605800
     40 CBN         -2.8550    -0.6890    -2.7140 c6         1 M2J       0.099100
     41 OBU         -2.6110    -2.0680    -2.8340 oh         1 M2J      -0.581800
     42 CBO         -4.3610    -0.4540    -2.6610 c6         1 M2J       0.158100
     43 CBP         -5.0760    -1.0560    -3.8510 c3         1 M2J       0.150400
     44 OBT         -6.4050    -0.5930    -3.8600 oh         1 M2J      -0.593800
     45 OBS         -4.9120    -0.9920    -1.4770 os         1 M2J      -0.387600
     46 CBK         -4.4120    -0.3620    -0.3320 c6         1 M2J       0.324900
     47 OBQ         -5.0310    -0.8950     0.7810 os         1 M2J      -0.395600
     48 CBY         -6.3210    -0.4110     1.1050 c6         1 M2J       0.125100
     49 CBX         -7.2210    -1.6100     1.3720 c6         1 M2J       0.151100
     50 OCD         -7.3700    -2.3340     0.1810 oh         1 M2J      -0.565800
     51 CBW         -8.5670    -1.1550     1.9230 c6         1 M2J       0.080100
     52 OCC         -9.2960    -2.3120     2.2480 oh         1 M2J      -0.601800
     53 CBV         -8.3480    -0.2640     3.1390 c6         1 M2J       0.318900
     54 OCB         -9.5710     0.2110     3.5650 oh         1 M2J      -0.582800
     55 OCE         -7.5470     0.8330     2.7680 os         1 M2J      -0.422600
     56 CBZ         -6.2450     0.4680     2.3630 c6         1 M2J       0.135100
     57 CCA         -5.4650     1.7470     2.1400 c3         1 M2J       0.142400
     58 OCF         -5.4070     2.4530     3.3560 oh         1 M2J      -0.586800
     59 H1           6.4080     4.0620     1.9220 h1         1 M2J       0.033700
     60 H2           4.1190     3.9210     1.2000 h1         1 M2J       0.044700
     61 H3           5.5120     5.8410     0.4420 h1         1 M2J       0.029200
     62 H4           5.7570     5.0360    -1.1110 h1         1 M2J       0.029200
     63 H5           5.1300     2.1230     2.4970 h1         1 M2J       0.032700
     64 H6           5.5480    -0.7390     3.4880 ho         1 M2J       0.409000
     65 H8           3.5170    -2.0790     2.4270 h1         1 M2J       0.041700
     66 H9           4.2920    -3.3630     4.1850 ho         1 M2J       0.408000
     67 H10          2.9170    -3.8660     0.9720 h1         1 M2J       0.063700
     68 H11          4.5160    -5.1990     0.1060 ho         1 M2J       0.401000
     69 H12          3.4170    -1.7310     0.0540 h1         1 M2J       0.065700
     70 H13          2.9340    -3.5030    -1.5880 hc         1 M2J       0.043033
     71 H14          4.0080    -2.2800    -2.2600 hc         1 M2J       0.043033
     72 H15          4.6580    -3.8450    -1.7750 hc         1 M2J       0.043033
     73 H16          6.8620    -1.0360     0.9850 h2         1 M2J       0.092700
     74 H17          6.1450     0.8160    -0.0660 h1         1 M2J       0.103700
     75 H18          7.2320     1.8540     3.1650 ho         1 M2J       0.406000
     76 H19          7.6780     4.0920     0.1220 ho         1 M2J       0.402000
     77 H20          3.9220     6.4050    -1.1980 ho         1 M2J       0.409000
     78 H21          3.3730     1.7670     0.8010 h2         1 M2J       0.022700
     79 H22          2.2150     2.1370    -1.3890 h1         1 M2J       0.066700
     80 H23          1.6760    -0.8570    -1.1110 h1         1 M2J       0.114700
     81 H24          0.9100     1.4060     0.6330 hn         1 M2J       0.305500
     82 H25         -0.2380    -0.5850     3.1150 hc         1 M2J       0.058700
     83 H26          1.4330    -0.0790     3.3230 hc         1 M2J       0.058700
     84 H27          0.2470     1.0620     2.6870 hc         1 M2J       0.058700
     85 H28          2.9650    -0.1390    -3.2560 h1         1 M2J       0.057700
     86 H29          3.9590     1.4860    -4.3430 ho         1 M2J       0.408000
     87 H30          0.9050     2.0930    -3.5880 h1         1 M2J       0.059700
     88 H31          2.0590     1.4220    -5.6750 h1         1 M2J       0.028700
     89 H32          1.6130    -0.2620    -5.3870 h1         1 M2J       0.028700
     90 H33          0.0850     0.9120    -6.7320 ho         1 M2J       0.408000
     91 H34         -0.2590     1.4390    -1.6780 h2         1 M2J       0.022700
     92 H35         -2.3030     0.9800    -1.4870 h1         1 M2J       0.049700
     93 H36         -2.7510    -1.6960    -0.0990 h1         1 M2J       0.090700
     94 H37         -2.6130    -0.3890     1.7090 ho         1 M2J       0.421000
     95 H38         -2.4600    -0.1390    -3.5810 h1         1 M2J       0.058700
     96 H39         -1.6570    -2.2010    -2.8100 ho         1 M2J       0.425000
     97 H40         -4.5140     0.6390    -2.6850 h1         1 M2J       0.042700
     98 H41         -4.5350    -0.7500    -4.7560 h1         1 M2J       0.040200
     99 H42         -5.0250    -2.1490    -3.7980 h1         1 M2J       0.040200
    100 H43         -6.8670    -1.0330    -4.5790 ho         1 M2J       0.406000
    101 H44         -4.5900     0.7270    -0.4080 h2         1 M2J       0.018700
    102 H45         -6.7430     0.1750     0.2770 h1         1 M2J       0.078700
    103 H46         -6.7310    -2.2240     2.1480 h1         1 M2J       0.047700
    104 H47         -7.9330    -3.0920     0.3690 ho         1 M2J       0.418000
    105 H48         -9.0810    -0.5590     1.1530 h1         1 M2J       0.068700
    106 H49        -10.2090    -2.0620     2.4190 ho         1 M2J       0.424000
    107 H50         -7.8400    -0.8420     3.9310 h2         1 M2J       0.030700
    108 H51         -9.5050     0.4960     4.4820 ho         1 M2J       0.425000
    109 H52         -5.7480    -0.1170     3.1550 h1         1 M2J       0.054700
    110 H53         -4.4630     1.4940     1.7810 h1         1 M2J       0.033700
    111 H54         -5.9560     2.3350     1.3500 h1         1 M2J       0.033700
    112 H55         -4.8390     3.2170     3.2270 ho         1 M2J       0.404000
    113 H7           6.3950    -3.0630     2.1880 h1         1 M2J       0.111700
@<TRIPOS>BOND
     1     1     2 1   
     2     1     4 1   
     3     1    18 1   
     4     1    59 1   
     5     2     3 1   
     6     2    20 1   
     7     2    60 1   
     8     3    19 1   
     9     3    61 1   
    10     3    62 1   
    11     4    16 1   
    12     4    17 1   
    13     4    63 1   
    14     5     6 1   
    15     5    64 1   
    16     6     7 1   
    17     6    14 1   
    18     6   113 1   
    19     7     8 1   
    20     7     9 1   
    21     7    65 1   
    22     8    66 1   
    23     9    10 1   
    24     9    11 1   
    25     9    67 1   
    26    10    68 1   
    27    11    12 1   
    28    11    13 1   
    29    11    69 1   
    30    12    70 1   
    31    12    71 1   
    32    12    72 1   
    33    13    14 1   
    34    14    15 1   
    35    14    73 1   
    36    15    16 1   
    37    16    21 1   
    38    16    74 1   
    39    17    75 1   
    40    18    76 1   
    41    19    77 1   
    42    20    21 1   
    43    21    22 1   
    44    21    78 1   
    45    22    23 1   
    46    23    24 1   
    47    23    29 1   
    48    23    79 1   
    49    24    25 1   
    50    24    35 1   
    51    24    80 1   
    52    25    26 1   
    53    25    81 1   
    54    26    27 2   
    55    26    28 1   
    56    28    82 1   
    57    28    83 1   
    58    28    84 1   
    59    29    30 1   
    60    29    31 1   
    61    29    85 1   
    62    30    86 1   
    63    31    32 1   
    64    31    34 1   
    65    31    87 1   
    66    32    33 1   
    67    32    88 1   
    68    32    89 1   
    69    33    90 1   
    70    34    35 1   
    71    35    36 1   
    72    35    91 1   
    73    36    37 1   
    74    37    38 1   
    75    37    40 1   
    76    37    92 1   
    77    38    39 1   
    78    38    46 1   
    79    38    93 1   
    80    39    94 1   
    81    40    41 1   
    82    40    42 1   
    83    40    95 1   
    84    41    96 1   
    85    42    43 1   
    86    42    45 1   
    87    42    97 1   
    88    43    44 1   
    89    43    98 1   
    90    43    99 1   
    91    44   100 1   
    92    45    46 1   
    93    46    47 1   
    94    46   101 1   
    95    47    48 1   
    96    48    49 1   
    97    48    56 1   
    98    48   102 1   
    99    49    50 1   
   100    49    51 1   
   101    49   103 1   
   102    50   104 1   
   103    51    52 1   
   104    51    53 1   
   105    51   105 1   
   106    52   106 1   
   107    53    54 1   
   108    53    55 1   
   109    53   107 1   
   110    54   108 1   
   111    55    56 1   
   112    56    57 1   
   113    56   109 1   
   114    57    58 1   
   115    57   110 1   
   116    57   111 1   
   117    58   112 1   
@<TRIPOS>SUBSTRUCTURE
     1 M2J         1 TEMP              0 ****  ****    0 ROOT
