@<TRIPOS>MOLECULE
M2J
  113   117     1     0     0
SMALL
No Charge or Current Charge


@<TRIPOS>ATOM
      1 C4           6.5700     3.1890     0.7330 c6         1 M2J       0.110300
      2 C5           5.3130     3.7900     0.0190 c6         1 M2J       0.149300
      3 C6           5.5810     5.1740    -0.6590 c3         1 M2J       0.169600
      4 C3           6.1720     1.8180     1.3520 c6         1 M2J       0.158300
      5 OAI          6.2640    -0.7540     3.5100 oh         1 M2J      -0.716000
      6 CAB          6.1070    -1.8560     2.5740 c6         1 M2J       0.111300
      7 CAC          4.7900    -2.6340     2.8740 c6         1 M2J       0.155300
      8 OAJ          4.7820    -3.0750     4.2450 oh         1 M2J      -0.638000
      9 CAD          4.6100    -3.8130     1.8600 c6         1 M2J       0.150300
     10 OAK          5.6610    -4.8000     2.0220 oh         1 M2J      -0.702000
     11 CAE          4.6200    -3.1950     0.4200 c6         1 M2J       0.133300
     12 CAF          4.4630    -4.2440    -0.7110 c3         1 M2J      -0.088100
     13 OAG          5.8600    -2.4880     0.1760 os         1 M2J      -0.456000
     14 CAA          6.0970    -1.3850     1.0770 c6         1 M2J       0.364300
     15 O2           5.0870    -0.3770     0.8530 os         1 M2J      -0.497000
     16 C2           5.5420     0.8750     0.2670 c6         1 M2J       0.160300
     17 O3           7.3250     1.2320     1.9830 oh         1 M2J      -0.692000
     18 O4           7.6900     2.9840    -0.1590 oh         1 M2J      -0.686000
     19 O6           4.4030     5.7460    -1.2590 oh         1 M2J      -0.710000
     20 O5           4.8130     2.8680    -0.9800 os         1 M2J      -0.452000
     21 C1           4.3620     1.6150    -0.4310 c6         1 M2J       0.395300
     22 O1           3.8440     0.8300    -1.5210 os         1 M2J      -0.413000
     23 CAY          2.4670     1.0870    -1.8910 c6         1 M2J       0.169300
     24 CAX          1.4520     0.2170    -1.0800 c6         1 M2J       0.053700
     25 NBJ          1.5430     0.4260     0.3890 ns         1 M2J      -0.493900
     26 CBC          1.5120    -0.5690     1.3400 c          1 M2J       0.619100
     27 OBI          1.4470    -1.7560     1.0580 o          1 M2J      -0.597100
     28 CBD          1.5870    -0.0740     2.7780 c3         1 M2J      -0.176100
     29 CAZ          2.3040     0.8370    -3.4180 c6         1 M2J       0.139300
     30 OBF          3.2170     1.6690    -4.1600 oh         1 M2J      -0.692000
     31 CBA          0.8220     1.0720    -3.8330 c6         1 M2J       0.143300
     32 CBB          0.5590     0.7430    -5.3380 c3         1 M2J       0.169600
     33 OBH         -0.8280     0.8690    -5.7090 oh         1 M2J      -0.709000
     34 OBG         -0.0390     0.2290    -3.0260 os         1 M2J      -0.470000
     35 CAW          0.0180     0.5120    -1.6160 c6         1 M2J       0.379300
     36 OBE         -0.9510    -0.3250    -0.9680 os         1 M2J      -0.428000
     37 CBM         -2.3090     0.1930    -0.8850 c6         1 M2J       0.143300
     38 CBL         -3.1830    -0.7930    -0.0400 c6         1 M2J       0.143300
     39 OBR         -2.6680    -0.9530     1.3100 oh         1 M2J      -0.728000
     40 CBN         -2.9450     0.4190    -2.3020 c6         1 M2J       0.122300
     41 OBU         -2.6960    -0.7270    -3.1410 oh         1 M2J      -0.704000
     42 CBO         -4.4660     0.7630    -2.1630 c6         1 M2J       0.181300
     43 CBP         -5.1840     0.9200    -3.5450 c3         1 M2J       0.173600
     44 OBT         -6.5680     1.3120    -3.4260 oh         1 M2J      -0.716000
     45 OBS         -5.1550    -0.2480    -1.3890 os         1 M2J      -0.434000
     46 CBK         -4.6750    -0.3300    -0.0380 c6         1 M2J       0.371300
     47 OBQ         -5.4860    -1.2690     0.7020 os         1 M2J      -0.442000
     48 CBY         -6.8580    -0.8680     0.9730 c6         1 M2J       0.148300
     49 CBX         -7.8020    -2.1160     0.9450 c6         1 M2J       0.174300
     50 OCD         -7.7740    -2.8130    -0.3140 oh         1 M2J      -0.688000
     51 CBW         -9.2640    -1.6960     1.2580 c6         1 M2J       0.103300
     52 OCC        -10.1410    -2.8500     1.2420 oh         1 M2J      -0.724000
     53 CBV         -9.2820    -0.9570     2.6330 c6         1 M2J       0.365300
     54 OCB        -10.5640    -0.4370     2.9110 oh         1 M2J      -0.705000
     55 OCE         -8.4260     0.1820     2.5800 os         1 M2J      -0.469000
     56 CBZ         -7.0250    -0.1390     2.3550 c6         1 M2J       0.158300
     57 CCA         -6.2010     1.1840     2.4970 c3         1 M2J       0.165600
     58 OCF         -6.4710     1.8970     3.7210 oh         1 M2J      -0.709000
     59 H1           6.8620     3.8670     1.5500 h1         1 M2J       0.033700
     60 H2           4.5250     3.9460     0.7710 h1         1 M2J       0.044700
     61 H3           5.9800     5.8570     0.1040 h1         1 M2J       0.029200
     62 H4           6.3610     5.0430    -1.4210 h1         1 M2J       0.029200
     63 H5           5.4020     2.0040     2.1150 h1         1 M2J       0.032700
     64 H6           6.6370     0.0120     2.9870 ho         1 M2J       0.508000
     65 H8           3.9510    -1.9380     2.7240 h1         1 M2J       0.041700
     66 H9           5.2560    -2.3610     4.7280 ho         1 M2J       0.447000
     67 H10          3.6240    -4.2710     2.0350 h1         1 M2J       0.063700
     68 H11          5.4520    -5.5450     1.4150 ho         1 M2J       0.500000
     69 H12          3.7850    -2.4860     0.3260 h1         1 M2J       0.065700
     70 H13          3.5490    -4.8350    -0.5750 hc         1 M2J       0.043033
     71 H14          4.3930    -3.7520    -1.6890 hc         1 M2J       0.043033
     72 H15          5.3130    -4.9360    -0.7480 hc         1 M2J       0.043033
     73 H16          7.0920    -0.9730     0.8490 h2         1 M2J       0.092700
     74 H17          6.2890     0.6590    -0.5100 h1         1 M2J       0.103700
     75 H18          8.0880     1.6020     1.4730 ho         1 M2J       0.505000
     76 H19          8.0410     3.8680    -0.4130 ho         1 M2J       0.501000
     77 H20          4.6860     6.5690    -1.7220 ho         1 M2J       0.508000
     78 H21          3.5770     1.8070     0.3110 h2         1 M2J       0.022700
     79 H22          2.2460     2.1490    -1.7040 h1         1 M2J       0.066700
     80 H23          1.6710    -0.8390    -1.2940 h1         1 M2J       0.114700
     81 H24          1.5580     1.3760     0.7430 hn         1 M2J       0.305500
     82 H25          1.5560    -0.8910     3.5070 hc         1 M2J       0.058700
     83 H26          2.4900     0.5360     2.8950 hc         1 M2J       0.058700
     84 H27          0.7860     0.6540     2.9480 hc         1 M2J       0.058700
     85 H28          2.5400    -0.2210    -3.6090 h1         1 M2J       0.057700
     86 H29          4.0400     1.7090    -3.6170 ho         1 M2J       0.507000
     87 H30          0.5520     2.1240    -3.6600 h1         1 M2J       0.059700
     88 H31          1.1710     1.4170    -5.9510 h1         1 M2J       0.028700
     89 H32          0.9070    -0.2810    -5.5310 h1         1 M2J       0.028700
     90 H33         -0.8960     0.6060    -6.6560 ho         1 M2J       0.507000
     91 H34         -0.2270     1.5690    -1.4340 h2         1 M2J       0.022700
     92 H35         -2.2800     1.1580    -0.3590 h1         1 M2J       0.049700
     93 H36         -3.1600    -1.7650    -0.5570 h1         1 M2J       0.090700
     94 H37         -3.2790    -1.5810     1.7630 ho         1 M2J       0.520000
     95 H38         -2.4630     1.3010    -2.7500 h1         1 M2J       0.058700
     96 H39         -1.7140    -0.7090    -3.2810 ho         1 M2J       0.524000
     97 H40         -4.5580     1.7240    -1.6370 h1         1 M2J       0.042700
     98 H41         -4.6310     1.6660    -4.1320 h1         1 M2J       0.040200
     99 H42         -5.1100    -0.0360    -4.0830 h1         1 M2J       0.040200
    100 H43         -6.9510     1.2940    -4.3340 ho         1 M2J       0.505000
    101 H44         -4.7390     0.6630     0.4250 h2         1 M2J       0.018700
    102 H45         -7.1930    -0.1840     0.1790 h1         1 M2J       0.078700
    103 H46         -7.4730    -2.7990     1.7430 h1         1 M2J       0.047700
    104 H47         -8.6150    -3.3300    -0.3160 ho         1 M2J       0.517000
    105 H48         -9.5860    -0.9740     0.4910 h1         1 M2J       0.068700
    106 H49        -10.9770    -2.5560     1.6830 ho         1 M2J       0.523000
    107 H50         -8.9600    -1.6310     3.4420 h2         1 M2J       0.030700
    108 H51        -10.3650     0.4720     3.2260 ho         1 M2J       0.524000
    109 H52         -6.6940    -0.8200     3.1540 h1         1 M2J       0.054700
    110 H53         -5.1340     0.9280     2.4570 h1         1 M2J       0.033700
    111 H54         -6.4230     1.8220     1.6310 h1         1 M2J       0.033700
    112 H55         -5.9690     2.7450     3.6800 ho         1 M2J       0.503000
    113 H7           6.9480    -2.5580     2.6770 h1         1 M2J       0.111700
@<TRIPOS>BOND
     1     1     2 1   
     2     1     4 1   
     3     1    18 1   
     4     1    59 1   
     5     2     3 1   
     6     2    20 1   
     7     2    60 1   
     8     3    19 1   
     9     3    61 1   
    10     3    62 1   
    11     4    16 1   
    12     4    17 1   
    13     4    63 1   
    14     5     6 1   
    15     5    64 1   
    16     6     7 1   
    17     6    14 1   
    18     6   113 1   
    19     7     8 1   
    20     7     9 1   
    21     7    65 1   
    22     8    66 1   
    23     9    10 1   
    24     9    11 1   
    25     9    67 1   
    26    10    68 1   
    27    11    12 1   
    28    11    13 1   
    29    11    69 1   
    30    12    70 1   
    31    12    71 1   
    32    12    72 1   
    33    13    14 1   
    34    14    15 1   
    35    14    73 1   
    36    15    16 1   
    37    16    21 1   
    38    16    74 1   
    39    17    75 1   
    40    18    76 1   
    41    19    77 1   
    42    20    21 1   
    43    21    22 1   
    44    21    78 1   
    45    22    23 1   
    46    23    24 1   
    47    23    29 1   
    48    23    79 1   
    49    24    25 1   
    50    24    35 1   
    51    24    80 1   
    52    25    26 1   
    53    25    81 1   
    54    26    27 2   
    55    26    28 1   
    56    28    82 1   
    57    28    83 1   
    58    28    84 1   
    59    29    30 1   
    60    29    31 1   
    61    29    85 1   
    62    30    86 1   
    63    31    32 1   
    64    31    34 1   
    65    31    87 1   
    66    32    33 1   
    67    32    88 1   
    68    32    89 1   
    69    33    90 1   
    70    34    35 1   
    71    35    36 1   
    72    35    91 1   
    73    36    37 1   
    74    37    38 1   
    75    37    40 1   
    76    37    92 1   
    77    38    39 1   
    78    38    46 1   
    79    38    93 1   
    80    39    94 1   
    81    40    41 1   
    82    40    42 1   
    83    40    95 1   
    84    41    96 1   
    85    42    43 1   
    86    42    45 1   
    87    42    97 1   
    88    43    44 1   
    89    43    98 1   
    90    43    99 1   
    91    44   100 1   
    92    45    46 1   
    93    46    47 1   
    94    46   101 1   
    95    47    48 1   
    96    48    49 1   
    97    48    56 1   
    98    48   102 1   
    99    49    50 1   
   100    49    51 1   
   101    49   103 1   
   102    50   104 1   
   103    51    52 1   
   104    51    53 1   
   105    51   105 1   
   106    52   106 1   
   107    53    54 1   
   108    53    55 1   
   109    53   107 1   
   110    54   108 1   
   111    55    56 1   
   112    56    57 1   
   113    56   109 1   
   114    57    58 1   
   115    57   110 1   
   116    57   111 1   
   117    58   112 1   
@<TRIPOS>SUBSTRUCTURE
     1 M2J         1 TEMP              0 ****  ****    0 ROOT
