@<TRIPOS>MOLECULE
M2K
   21    22     1     0     0
SMALL
No Charge or Current Charge


@<TRIPOS>ATOM
      1 C10         -2.6160     0.8920     0.0660 c6         1 M2K      -0.087700
      2 C13         -3.0950    -0.5120    -0.3760 c6         1 M2K      -0.069400
      3 C22         -0.2780    -0.1260     0.0230 cc         1 M2K      -0.206300
      4 O01          2.2610    -1.6750    -0.0640 o          1 M2K      -0.715000
      5 O04          3.3370     0.1810    -0.0490 o          1 M2K      -0.715000
      6 C05          1.0180     0.3270     0.0030 cd         1 M2K      -0.173600
      7 N06          0.8960     1.7220     0.0160 na         1 M2K       0.017800
      8 N07         -0.4340     2.1510     0.0330 nd         1 M2K      -0.583800
      9 C09         -1.1060     1.0180     0.0320 cc         1 M2K       0.216300
     10 C16         -2.3030    -1.6140     0.3600 c6         1 M2K      -0.073400
     11 C19         -0.7990    -1.5510     0.0020 c6         1 M2K       0.026900
     12 H1          -3.0820     1.6520    -0.5740 hc         1 M2K       0.032200
     13 H2          -2.9770     1.0900     1.0840 hc         1 M2K       0.032200
     14 H3          -4.1690    -0.6190    -0.1720 hc         1 M2K       0.024200
     15 H4          -2.9680    -0.6250    -1.4610 hc         1 M2K       0.024200
     16 H6           1.6750     2.3810     0.0080 hn         1 M2K       0.373000
     17 H7          -2.4310    -1.4950     1.4450 hc         1 M2K       0.022700
     18 H8          -2.7050    -2.6030     0.1040 hc         1 M2K       0.022700
     19 H9          -0.6470    -1.9870    -0.9950 hc         1 M2K       0.048700
     20 H10         -0.2430    -2.1870     0.7040 hc         1 M2K       0.048700
     21 C03          2.2920    -0.4530    -0.0380 c          1 M2K       0.733600
@<TRIPOS>BOND
     1     1     2 1   
     2     1     9 1   
     3     1    12 1   
     4     1    13 1   
     5     2    10 1   
     6     2    14 1   
     7     2    15 1   
     8     3     6 2   
     9     3     9 1   
    10     3    11 1   
    11     4    21 1   
    12     5    21 1   
    13     6     7 1   
    14     6    21 1   
    15     7     8 1   
    16     7    16 1   
    17     8     9 2   
    18    10    11 1   
    19    10    17 1   
    20    10    18 1   
    21    11    19 1   
    22    11    20 1   
@<TRIPOS>SUBSTRUCTURE
     1 M2K         1 TEMP              0 ****  ****    0 ROOT
