@<TRIPOS>MOLECULE
M2K
   21    22     1     0     0
SMALL
abcg2


@<TRIPOS>ATOM
      1 C10         -2.6030     0.9020     0.0660 c6         1 M2K      -0.087700
      2 C13         -3.0830    -0.4860    -0.3640 c6         1 M2K      -0.069400
      3 C22         -0.2940    -0.2030     0.0150 cc         1 M2K      -0.206300
      4 O01          2.3420    -1.6150    -0.0700 o          1 M2K      -0.715000
      5 O04          3.3270     0.3950    -0.0200 o          1 M2K      -0.715000
      6 C05          0.9970     0.2920    -0.0030 cd         1 M2K      -0.173600
      7 N06          0.8700     1.6340     0.0130 na         1 M2K       0.017800
      8 N07         -0.3870     2.0530     0.0330 nd         1 M2K      -0.583800
      9 C09         -1.1100     0.9420     0.0350 cc         1 M2K       0.216300
     10 C16         -2.3180    -1.5910     0.3620 c6         1 M2K      -0.073400
     11 C19         -0.8330    -1.5970    -0.0070 c6         1 M2K       0.026900
     12 H1          -3.0280     1.6760    -0.5770 hc         1 M2K       0.032200
     13 H2          -2.9640     1.1120     1.0780 hc         1 M2K       0.032200
     14 H3          -4.1540    -0.5800    -0.1730 hc         1 M2K       0.024200
     15 H4          -2.9480    -0.6020    -1.4450 hc         1 M2K       0.024200
     16 H6           1.6310     2.2930     0.0050 hn         1 M2K       0.373000
     17 H7          -2.4280    -1.4510     1.4420 hc         1 M2K       0.022700
     18 H8          -2.7560    -2.5640     0.1300 hc         1 M2K       0.022700
     19 H9          -0.7070    -2.0280    -1.0050 hc         1 M2K       0.048700
     20 H10         -0.2720    -2.2430     0.6690 hc         1 M2K       0.048700
     21 C03          2.3430    -0.3710    -0.0330 c          1 M2K       0.733600
@<TRIPOS>BOND
     1     1     2 1   
     2     1     9 1   
     3     1    12 1   
     4     1    13 1   
     5     2    10 1   
     6     2    14 1   
     7     2    15 1   
     8     3     6 2   
     9     3     9 1   
    10     3    11 1   
    11     4    21 1   
    12     5    21 1   
    13     6     7 1   
    14     6    21 1   
    15     7     8 1   
    16     7    16 1   
    17     8     9 2   
    18    10    11 1   
    19    10    17 1   
    20    10    18 1   
    21    11    19 1   
    22    11    20 1   
@<TRIPOS>SUBSTRUCTURE
     1 M2K         1 TEMP              0 ****  ****    0 ROOT
