@<TRIPOS>MOLECULE
M2L
   27    26     1     0     0
SMALL
No Charge or Current Charge


@<TRIPOS>ATOM
      1 N           18.7030    -1.7750    51.0860 n8         1 M2L      -0.987200
      2 CA          17.3380    -1.7190    51.7340 c3         1 M2L       0.013500
      3 CB          17.3100    -0.6430    52.8520 c3         1 M2L       0.074600
      4 SG          18.7090    -0.8500    54.0690 ss         1 M2L      -0.556000
      5 CD          18.1380    -2.3750    54.9830 c3         1 M2L       0.081600
      6 CE          19.0390    -2.7350    56.1970 c3         1 M2L       0.177800
      7 NZ          20.2220    -3.5990    55.9130 n3         1 M2L      -0.712600
      8 CM1         21.1730    -3.0210    54.9360 c3         1 M2L       0.150100
      9 CM2         20.9010    -4.0320    57.1550 c3         1 M2L       0.150100
     10 C           16.0980    -1.5220    50.7740 c          1 M2L       0.725000
     11 O           16.0420    -0.5050    50.0930 o          1 M2L      -0.724500
     12 OXT         15.2660    -2.4180    50.7070 o          1 M2L      -0.724500
     13 HN          18.8370    -0.9210    50.5320 hn         1 M2L       0.386000
     14 HNA         19.3940    -1.6800    51.8410 hn         1 M2L       0.386000
     15 HA          17.1890    -2.6900    52.2260 h1         1 M2L       0.047700
     16 HB          17.3870     0.3540    52.3980 h1         1 M2L       0.070200
     17 HBA         16.3520    -0.6920    53.3880 h1         1 M2L       0.070200
     18 HD          17.1240    -2.1810    55.3560 h1         1 M2L       0.071700
     19 HDA         18.0850    -3.2320    54.2990 h1         1 M2L       0.071700
     20 HE          19.3560    -1.8040    56.6880 h1         1 M2L       0.030200
     21 HEA         18.3970    -3.2610    56.9150 h1         1 M2L       0.030200
     22 HM1         20.6980    -2.8850    53.9560 h1         1 M2L       0.028533
     23 HM1A        21.5480    -2.0480    55.2820 h1         1 M2L       0.028533
     24 HM1B        22.0330    -3.6880    54.7920 h1         1 M2L       0.028533
     25 HM2         21.7120    -4.7370    56.9290 h1         1 M2L       0.028533
     26 HM2A        21.3310    -3.1710    57.6860 h1         1 M2L       0.028533
     27 HM2B        20.1960    -4.5360    57.8290 h1         1 M2L       0.028533
@<TRIPOS>BOND
     1     1     2 1   
     2     1    13 1   
     3     1    14 1   
     4     2     3 1   
     5     2    10 1   
     6     2    15 1   
     7     3     4 1   
     8     3    16 1   
     9     3    17 1   
    10     4     5 1   
    11     5     6 1   
    12     5    18 1   
    13     5    19 1   
    14     6     7 1   
    15     6    20 1   
    16     6    21 1   
    17     7     8 1   
    18     7     9 1   
    19     8    22 1   
    20     8    23 1   
    21     8    24 1   
    22     9    25 1   
    23     9    26 1   
    24     9    27 1   
    25    10    11 1   
    26    10    12 1   
@<TRIPOS>SUBSTRUCTURE
     1 M2L         1 TEMP              0 ****  ****    0 ROOT
