@<TRIPOS>MOLECULE
M2L
   27    26     1     0     0
SMALL
abcg2


@<TRIPOS>ATOM
      1 N           18.4410    -1.8060    50.8630 n8         1 M2L      -0.987200
      2 CA          17.2690    -1.7380    51.7130 c3         1 M2L       0.013500
      3 CB          17.3910    -0.7370    52.8730 c3         1 M2L       0.074600
      4 SG          18.8180    -1.0140    53.9590 ss         1 M2L      -0.556000
      5 CD          18.3100    -2.5590    54.7800 c3         1 M2L       0.081600
      6 CE          19.0690    -2.8230    56.0780 c3         1 M2L       0.177800
      7 NZ          20.2950    -3.5810    55.9200 n3         1 M2L      -0.712600
      8 CM1         21.3170    -2.8740    55.1770 c3         1 M2L       0.150100
      9 CM2         20.7990    -3.9940    57.2130 c3         1 M2L       0.150100
     10 C           16.0050    -1.3430    50.9040 c          1 M2L       0.725000
     11 O           16.1880    -0.6700    49.8710 o          1 M2L      -0.724500
     12 OXT         14.9140    -1.6970    51.3920 o          1 M2L      -0.724500
     13 HN          18.4580    -0.9750    50.2850 hn         1 M2L       0.386000
     14 HNA         19.2760    -1.7830    51.4380 hn         1 M2L       0.386000
     15 HA          17.0900    -2.7280    52.1460 h1         1 M2L       0.047700
     16 HB          17.5220     0.2740    52.4780 h1         1 M2L       0.070200
     17 HBA         16.4850    -0.7390    53.4830 h1         1 M2L       0.070200
     18 HD          17.2480    -2.4580    55.0080 h1         1 M2L       0.071700
     19 HDA         18.4250    -3.4090    54.1060 h1         1 M2L       0.071700
     20 HE          19.2350    -1.8690    56.6090 h1         1 M2L       0.030200
     21 HEA         18.4080    -3.4130    56.7180 h1         1 M2L       0.030200
     22 HM1         20.9910    -2.6730    54.1570 h1         1 M2L       0.028533
     23 HM1A        21.5990    -1.9130    55.6370 h1         1 M2L       0.028533
     24 HM1B        22.2150    -3.4890    55.1170 h1         1 M2L       0.028533
     25 HM2         21.6860    -4.6150    57.0860 h1         1 M2L       0.028533
     26 HM2A        21.0730    -3.1500    57.8650 h1         1 M2L       0.028533
     27 HM2B        20.0490    -4.5890    57.7380 h1         1 M2L       0.028533
@<TRIPOS>BOND
     1     1     2 1   
     2     1    13 1   
     3     1    14 1   
     4     2     3 1   
     5     2    10 1   
     6     2    15 1   
     7     3     4 1   
     8     3    16 1   
     9     3    17 1   
    10     4     5 1   
    11     5     6 1   
    12     5    18 1   
    13     5    19 1   
    14     6     7 1   
    15     6    20 1   
    16     6    21 1   
    17     7     8 1   
    18     7     9 1   
    19     8    22 1   
    20     8    23 1   
    21     8    24 1   
    22     9    25 1   
    23     9    26 1   
    24     9    27 1   
    25    10    11 1   
    26    10    12 1   
@<TRIPOS>SUBSTRUCTURE
     1 M2L         1 TEMP              0 ****  ****    0 ROOT
