@<TRIPOS>MOLECULE
M2M
   23    22     1     0     0
SMALL
bcc


@<TRIPOS>ATOM
      1 C1           1.2670     0.1600     3.7670 c3         1 M2M       0.122700
      2 O1           0.4330     0.4410     2.6730 os         1 M2M      -0.395600
      3 C2          -0.3510    -0.6610     2.2970 c3         1 M2M       0.136400
      4 C3          -1.2470    -0.2860     1.1450 c3         1 M2M       0.138400
      5 O2          -0.4720     0.0080     0.0110 os         1 M2M      -0.386600
      6 C4          -1.2560     0.2960    -1.1190 c3         1 M2M       0.138400
      7 C5          -0.3700     0.6700    -2.2780 c3         1 M2M       0.136400
      8 O3           0.4170    -0.4300    -2.6550 os         1 M2M      -0.395600
      9 C6           1.2470    -0.1470    -3.7510 c3         1 M2M       0.122700
     10 H11          1.8370     1.0590     3.9970 h1         1 M2M       0.027033
     11 H12          0.6950    -0.1250     4.6590 h1         1 M2M       0.027033
     12 H13          1.9740    -0.6510     3.5500 h1         1 M2M       0.027033
     13 H21          0.2790    -1.5180     2.0180 h1         1 M2M       0.028700
     14 H22         -0.9890    -0.9960     3.1280 h1         1 M2M       0.028700
     15 H31         -1.9240    -1.1310     0.9540 h1         1 M2M       0.026200
     16 H32         -1.8790     0.5700     1.4210 h1         1 M2M       0.026200
     17 H41         -1.8890    -0.5620    -1.3870 h1         1 M2M       0.026200
     18 H42         -1.9330     1.1400    -0.9260 h1         1 M2M       0.026200
     19 H51         -1.0140     0.9990    -3.1060 h1         1 M2M       0.028700
     20 H52          0.2590     1.5310    -2.0060 h1         1 M2M       0.028700
     21 H61          1.8190    -1.0460    -3.9820 h1         1 M2M       0.027033
     22 H62          0.6730     0.1340    -4.6420 h1         1 M2M       0.027033
     23 H63          1.9520     0.6650    -3.5370 h1         1 M2M       0.027033
@<TRIPOS>BOND
     1     1     2 1   
     2     1    10 1   
     3     1    11 1   
     4     1    12 1   
     5     2     3 1   
     6     3     4 1   
     7     3    13 1   
     8     3    14 1   
     9     4     5 1   
    10     4    15 1   
    11     4    16 1   
    12     5     6 1   
    13     6     7 1   
    14     6    17 1   
    15     6    18 1   
    16     7     8 1   
    17     7    19 1   
    18     7    20 1   
    19     8     9 1   
    20     9    21 1   
    21     9    22 1   
    22     9    23 1   
@<TRIPOS>SUBSTRUCTURE
     1 M2M         1 TEMP              0 ****  ****    0 ROOT
