@<TRIPOS>MOLECULE
M2M
   23    22     1     0     0
SMALL
No Charge or Current Charge


@<TRIPOS>ATOM
      1 C1           1.2310     0.2570     3.9010 c3         1 M2M       0.145900
      2 O1           0.3070     0.4680     2.8210 os         1 M2M      -0.442000
      3 C2          -0.3150    -0.7350     2.3250 c3         1 M2M       0.159600
      4 C3          -1.2750    -0.3700     1.1660 c3         1 M2M       0.161600
      5 O2          -0.4980     0.0050     0.0110 os         1 M2M      -0.433000
      6 C4          -1.2820     0.3780    -1.1390 c3         1 M2M       0.161600
      7 C5          -0.3300     0.7450    -2.3030 c3         1 M2M       0.159600
      8 O3           0.2930    -0.4570    -2.8020 os         1 M2M      -0.442000
      9 C6           1.2100    -0.2440    -3.8880 c3         1 M2M       0.145900
     10 H11          1.6630     1.2130     4.2250 h1         1 M2M       0.027033
     11 H12          0.7270    -0.2000     4.7620 h1         1 M2M       0.027033
     12 H13          2.0520    -0.4010     3.5890 h1         1 M2M       0.027033
     13 H21          0.4370    -1.4500     1.9660 h1         1 M2M       0.028700
     14 H22         -0.8930    -1.2210     3.1220 h1         1 M2M       0.028700
     15 H31         -1.9000    -1.2430     0.9360 h1         1 M2M       0.026200
     16 H32         -1.9350     0.4490     1.4810 h1         1 M2M       0.026200
     17 H41         -1.9420    -0.4430    -1.4500 h1         1 M2M       0.026200
     18 H42         -1.9080     1.2490    -0.9060 h1         1 M2M       0.026200
     19 H51         -0.9130     1.2290    -3.0970 h1         1 M2M       0.028700
     20 H52          0.4230     1.4620    -1.9480 h1         1 M2M       0.028700
     21 H61          1.6420    -1.1980    -4.2140 h1         1 M2M       0.027033
     22 H62          0.7000     0.2120    -4.7460 h1         1 M2M       0.027033
     23 H63          2.0320     0.4160    -3.5810 h1         1 M2M       0.027033
@<TRIPOS>BOND
     1     1     2 1   
     2     1    10 1   
     3     1    11 1   
     4     1    12 1   
     5     2     3 1   
     6     3     4 1   
     7     3    13 1   
     8     3    14 1   
     9     4     5 1   
    10     4    15 1   
    11     4    16 1   
    12     5     6 1   
    13     6     7 1   
    14     6    17 1   
    15     6    18 1   
    16     7     8 1   
    17     7    19 1   
    18     7    20 1   
    19     8     9 1   
    20     9    21 1   
    21     9    22 1   
    22     9    23 1   
@<TRIPOS>SUBSTRUCTURE
     1 M2M         1 TEMP              0 ****  ****    0 ROOT
