@<TRIPOS>MOLECULE
M2N
   38    41     1     0     0
SMALL
No Charge or Current Charge


@<TRIPOS>ATOM
      1 CAK         -1.2810    -1.8280     1.1260 ca         1 M2N      -0.105000
      2 CAG         -1.9780    -3.0480     1.1600 ca         1 M2N      -0.114500
      3 CAD         -1.9570    -3.9010     0.0430 ca         1 M2N      -0.112000
      4 CAH         -1.2360    -3.5340    -1.1060 ca         1 M2N      -0.114500
      5 CAL         -0.5400    -2.3130    -1.1400 ca         1 M2N      -0.105000
      6 CAR         -0.5620    -1.4530    -0.0250 ca         1 M2N      -0.027800
      7 CAU          0.1690    -0.1910    -0.0560 cc         1 M2N      -0.023400
      8 C5           1.5890    -0.0090    -0.0150 ca         1 M2N      -0.290800
      9 C6           2.6600    -0.9060    -0.0180 ca         1 M2N       0.463900
     10 NAB          2.5030    -2.2470    -0.0760 nv         1 M2N      -1.064900
     11 N1           3.9220    -0.4680     0.0530 nb         1 M2N      -0.356000
     12 C2           4.0620     0.8640     0.1260 ca         1 M2N       0.424900
     13 NAA          5.3320     1.3180     0.1930 nv         1 M2N      -1.048900
     14 N3           3.0960     1.8010     0.1410 nb         1 M2N      -0.304000
     15 C4           1.8370     1.3330     0.0720 ca         1 M2N       0.195500
     16 NAO          0.6350     2.0200     0.0870 na         1 M2N      -0.317400
     17 CAT         -0.4220     1.0730     0.0220 cd         1 M2N      -0.021300
     18 CAQ         -1.8550     1.4740    -0.0370 ca         1 M2N      -0.033800
     19 CAI         -2.2170     2.7980     0.3090 ca         1 M2N      -0.097500
     20 CAE         -3.5570     3.2200     0.2670 ca         1 M2N      -0.110000
     21 CAC         -4.5640     2.3300    -0.1310 ca         1 M2N      -0.106000
     22 CAF         -4.2250     1.0190    -0.4940 ca         1 M2N      -0.110000
     23 CAJ         -2.8850     0.5950    -0.4510 ca         1 M2N      -0.097500
     24 HAK         -1.2980    -1.1700     1.9920 ha         1 M2N       0.122000
     25 HAG         -2.5340    -3.3320     2.0510 ha         1 M2N       0.113500
     26 HAD         -2.4960    -4.8450     0.0690 ha         1 M2N       0.112000
     27 HAH         -1.2190    -4.1940    -1.9710 ha         1 M2N       0.113500
     28 HAL          0.0150    -2.0300    -2.0310 ha         1 M2N       0.122000
     29 HAB1         1.5680    -2.6120     0.0780 hn         1 M2N       0.493500
     30 HAB2         3.2840    -2.8350     0.1970 hn         1 M2N       0.493500
     31 HAA1         6.0820     0.6740    -0.0440 hn         1 M2N       0.483000
     32 HAA2         5.5020     2.3050     0.0190 hn         1 M2N       0.483000
     33 HAO          0.5390     3.0260     0.1160 hn         1 M2N       0.361000
     34 HAI         -1.4640     3.5100     0.6340 ha         1 M2N       0.118500
     35 HAJ         -2.6700    -0.4140    -0.7770 ha         1 M2N       0.118500
     36 HAE         -3.8140     4.2400     0.5470 ha         1 M2N       0.114000
     37 HAC         -5.6010     2.6570    -0.1650 ha         1 M2N       0.114000
     38 HAF         -5.0010     0.3290    -0.8180 ha         1 M2N       0.114000
@<TRIPOS>BOND
     1     1     2 ar  
     2     1     6 ar  
     3     1    24 1   
     4     2     3 ar  
     5     2    25 1   
     6     3     4 ar  
     7     3    26 1   
     8     4     5 ar  
     9     4    27 1   
    10     5     6 ar  
    11     5    28 1   
    12     6     7 1   
    13     7     8 1   
    14     7    17 2   
    15     8     9 ar  
    16     8    15 ar  
    17     9    10 1   
    18     9    11 ar  
    19    10    29 1   
    20    10    30 1   
    21    11    12 ar  
    22    12    13 1   
    23    12    14 ar  
    24    13    31 1   
    25    13    32 1   
    26    14    15 ar  
    27    15    16 1   
    28    16    17 1   
    29    16    33 1   
    30    17    18 1   
    31    18    19 ar  
    32    18    23 ar  
    33    19    20 ar  
    34    19    34 1   
    35    20    21 ar  
    36    20    36 1   
    37    21    22 ar  
    38    21    37 1   
    39    22    23 ar  
    40    22    38 1   
    41    23    35 1   
@<TRIPOS>SUBSTRUCTURE
     1 M2N         1 TEMP              0 ****  ****    0 ROOT
