@<TRIPOS>MOLECULE
M2N
   38    41     1     0     0
SMALL
bcc


@<TRIPOS>ATOM
      1 CAK         -1.5370    -1.7670     1.0530 ca         1 M2N      -0.123000
      2 CAG         -2.2530    -2.9540     1.0950 ca         1 M2N      -0.132500
      3 CAD         -2.0700    -3.9160     0.1100 ca         1 M2N      -0.130000
      4 CAH         -1.1670    -3.6810    -0.9190 ca         1 M2N      -0.132500
      5 CAL         -0.4560    -2.4900    -0.9650 ca         1 M2N      -0.123000
      6 CAR         -0.6300    -1.5170     0.0220 ca         1 M2N      -0.027800
      7 CAU          0.1210    -0.2540    -0.0240 cc         1 M2N      -0.023400
      8 C5           1.5460    -0.0900    -0.0220 ca         1 M2N      -0.421400
      9 C6           2.6970    -0.9080     0.0350 ca         1 M2N       0.792200
     10 NAB          2.6370    -2.2500     0.0800 nv         1 M2N      -0.954500
     11 N1           3.9030    -0.3510     0.0250 nb         1 M2N      -0.882000
     12 C2           4.0060     0.9860    -0.0150 ca         1 M2N       0.950900
     13 NAA          5.2700     1.4820     0.0150 nv         1 M2N      -0.938500
     14 N3           3.0090     1.8640    -0.0320 nb         1 M2N      -0.830000
     15 C4           1.8110     1.2830    -0.0260 ca         1 M2N       0.523800
     16 NAO          0.6240     1.9280    -0.0190 na         1 M2N      -0.267100
     17 CAT         -0.4120     1.0120    -0.0300 cd         1 M2N      -0.021300
     18 CAQ         -1.8010     1.4660    -0.0480 ca         1 M2N      -0.033800
     19 CAI         -2.1800     2.6180     0.6460 ca         1 M2N      -0.115500
     20 CAE         -3.4950     3.0590     0.6210 ca         1 M2N      -0.128000
     21 CAC         -4.4560     2.3560    -0.0920 ca         1 M2N      -0.124000
     22 CAF         -4.0880     1.2100    -0.7880 ca         1 M2N      -0.128000
     23 CAJ         -2.7740     0.7710    -0.7720 ca         1 M2N      -0.115500
     24 HAK         -1.6750    -1.0250     1.8290 ha         1 M2N       0.140000
     25 HAG         -2.9510    -3.1310     1.9030 ha         1 M2N       0.131500
     26 HAD         -2.6260    -4.8440     0.1440 ha         1 M2N       0.130000
     27 HAH         -1.0210    -4.4240    -1.6920 ha         1 M2N       0.131500
     28 HAL          0.2330    -2.3070    -1.7800 ha         1 M2N       0.140000
     29 HAB1         1.7730    -2.7140     0.2990 hn         1 M2N       0.438300
     30 HAB2         3.4820    -2.7560     0.2830 hn         1 M2N       0.438300
     31 HAA1         6.0160     0.8580    -0.2420 hn         1 M2N       0.427800
     32 HAA2         5.3960     2.4430    -0.2530 hn         1 M2N       0.427800
     33 HAO          0.5170     2.9270    -0.0910 hn         1 M2N       0.310700
     34 HAI         -1.4510     3.1680     1.2290 ha         1 M2N       0.136500
     35 HAJ         -2.5000    -0.1100    -1.3360 ha         1 M2N       0.136500
     36 HAE         -3.7690     3.9520     1.1680 ha         1 M2N       0.132000
     37 HAC         -5.4830     2.6980    -0.1080 ha         1 M2N       0.132000
     38 HAF         -4.8270     0.6610    -1.3580 ha         1 M2N       0.132000
@<TRIPOS>BOND
     1     1     2 ar  
     2     1     6 ar  
     3     1    24 1   
     4     2     3 ar  
     5     2    25 1   
     6     3     4 ar  
     7     3    26 1   
     8     4     5 ar  
     9     4    27 1   
    10     5     6 ar  
    11     5    28 1   
    12     6     7 1   
    13     7     8 1   
    14     7    17 2   
    15     8     9 ar  
    16     8    15 ar  
    17     9    10 1   
    18     9    11 ar  
    19    10    29 1   
    20    10    30 1   
    21    11    12 ar  
    22    12    13 1   
    23    12    14 ar  
    24    13    31 1   
    25    13    32 1   
    26    14    15 ar  
    27    15    16 1   
    28    16    17 1   
    29    16    33 1   
    30    17    18 1   
    31    18    19 ar  
    32    18    23 ar  
    33    19    20 ar  
    34    19    34 1   
    35    20    21 ar  
    36    20    36 1   
    37    21    22 ar  
    38    21    37 1   
    39    22    23 ar  
    40    22    38 1   
    41    23    35 1   
@<TRIPOS>SUBSTRUCTURE
     1 M2N         1 TEMP              0 ****  ****    0 ROOT
