@<TRIPOS>MOLECULE
M2O
   51    52     1     0     0
SMALL
abcg2


@<TRIPOS>ATOM
      1 N1          -2.5660    52.0820     7.1290 n          1 M2O      -0.267000
      2 C4          -2.3690    49.3710     7.2190 cc         1 M2O      -0.101000
      3 C5          -1.2770    50.0980     7.5590 cd         1 M2O      -0.186400
      4 C6          -1.3410    51.5370     7.5100 c          1 M2O       0.551200
      5 C8           0.0130    49.4790     7.9920 c3         1 M2O      -0.036900
      6 C15         -5.9640    49.2440     7.0390 ca         1 M2O      -0.231000
      7 C17         -4.5040    48.0650     5.5210 ca         1 M2O      -0.231000
      8 C21         -8.5270    49.5200     8.1430 c3         1 M2O       0.146400
      9 C24         -8.9580    44.2620     5.3380 c3         1 M2O       0.076400
     10 C11         -7.0140    48.3980     6.6890 ca         1 M2O       0.209100
     11 C14         -7.8630    45.0980     7.3630 c3         1 M2O       0.076400
     12 C16         -4.7180    49.0880     6.4410 ca         1 M2O       0.118200
     13 C18         -5.5510    47.2150     5.1860 ca         1 M2O       0.209100
     14 C19         -6.8220    47.3790     5.7480 ca         1 M2O      -0.271300
     15 C2          -3.6510    51.3370     6.7490 cd         1 M2O       0.117400
     16 C23         -4.2020    45.9650     3.6700 c3         1 M2O       0.146400
     17 C3          -3.5880    49.9680     6.8060 cc         1 M2O      -0.193200
     18 C9          -2.6560    53.5390     7.1120 c3         1 M2O       0.058300
     19 N13         -7.8660    45.1080     5.8790 nx         1 M2O      -0.658000
     20 O22         -5.4390    46.1940     4.3210 os         1 M2O      -0.375100
     21 O7          -0.3890    52.2630     7.7850 o          1 M2O      -0.531000
     22 H25         -2.3160    48.2890     7.2650 ha         1 M2O       0.182000
     23 H28          0.2930    49.8010     8.9970 hc         1 M2O       0.053033
     24 H26         -0.0630    48.3930     7.9970 hc         1 M2O       0.053033
     25 H27          0.8350    49.7570     7.3300 hc         1 M2O       0.053033
     26 H32         -4.5550    52.8470     5.5160 hc         1 M2O       0.063700
     27 H33         -5.5300    51.4040     5.7340 hc         1 M2O       0.063700
     28 H34         -5.3950    52.5730     7.0370 hc         1 M2O       0.063700
     29 H41         -6.1000    50.0150     7.7840 ha         1 M2O       0.143000
     30 H42         -3.5280    47.9570     5.0660 ha         1 M2O       0.143000
     31 H43         -9.5760    49.4110     8.4080 h1         1 M2O       0.058200
     32 H44         -7.9240    49.4310     9.0490 h1         1 M2O       0.058200
     33 H45         -8.3730    50.5090     7.7070 h1         1 M2O       0.058200
     34 H50         -8.8400    43.2490     5.7110 hx         1 M2O       0.095367
     35 H51         -9.9110    44.6700     5.6650 hx         1 M2O       0.095367
     36 H49         -8.9050    44.2650     4.2530 hx         1 M2O       0.095367
     37 H36         -8.9150    46.8930     5.6060 hx         1 M2O       0.099200
     38 H35         -7.9550    46.3760     4.2260 hx         1 M2O       0.099200
     39 H40         -7.7990    44.0680     7.7020 hx         1 M2O       0.095367
     40 H38         -7.0060    45.6560     7.7270 hx         1 M2O       0.095367
     41 H39         -8.7850    45.5500     7.7160 hx         1 M2O       0.095367
     42 H46         -4.3530    45.1070     3.0200 h1         1 M2O       0.058200
     43 H47         -3.9020    46.8220     3.0630 h1         1 M2O       0.058200
     44 H48         -3.4080    45.7360     4.3830 h1         1 M2O       0.058200
     45 H30         -1.8640    53.9500     7.7240 h1         1 M2O       0.064367
     46 H31         -2.5500    53.9270     6.0990 h1         1 M2O       0.064367
     47 H29         -3.6110    53.8630     7.5160 h1         1 M2O       0.064367
     48 H37         -6.9840    44.7010     5.5630 hn         1 M2O       0.506000
     49 C10         -4.8430    52.0800     6.2340 c3         1 M2O      -0.079900
     50 O20         -8.2430    48.4870     7.2180 os         1 M2O      -0.375100
     51 C12         -7.9460    46.4990     5.3080 c3         1 M2O       0.191900
@<TRIPOS>BOND
     1     1     4 1   
     2     1    15 1   
     3     1    18 1   
     4     2     3 2   
     5     2    17 1   
     6     2    22 1   
     7     3     4 1   
     8     3     5 1   
     9     4    21 2   
    10     5    23 1   
    11     5    24 1   
    12     5    25 1   
    13     6    10 ar  
    14     6    12 ar  
    15     6    29 1   
    16     7    12 ar  
    17     7    13 ar  
    18     7    30 1   
    19     8    31 1   
    20     8    32 1   
    21     8    33 1   
    22     8    50 1   
    23     9    19 1   
    24     9    34 1   
    25     9    35 1   
    26     9    36 1   
    27    10    14 ar  
    28    10    50 1   
    29    11    19 1   
    30    11    39 1   
    31    11    40 1   
    32    11    41 1   
    33    12    17 1   
    34    13    14 ar  
    35    13    20 1   
    36    14    51 1   
    37    15    17 2   
    38    15    49 1   
    39    16    20 1   
    40    16    42 1   
    41    16    43 1   
    42    16    44 1   
    43    18    45 1   
    44    18    46 1   
    45    18    47 1   
    46    19    48 1   
    47    19    51 1   
    48    26    49 1   
    49    27    49 1   
    50    28    49 1   
    51    37    51 1   
    52    38    51 1   
@<TRIPOS>SUBSTRUCTURE
     1 M2O         1 TEMP              0 ****  ****    0 ROOT
