@<TRIPOS>MOLECULE
M2O
   51    52     1     0     0
SMALL
No Charge or Current Charge


@<TRIPOS>ATOM
      1 N1          -2.5540    52.1250     7.2080 n          1 M2O      -0.267000
      2 C4          -2.2880    49.3290     7.1230 cc         1 M2O      -0.101000
      3 C5          -1.1820    50.0910     7.4060 cd         1 M2O      -0.186400
      4 C6          -1.2780    51.5710     7.4830 c          1 M2O       0.551200
      5 C8           0.1810    49.4910     7.6860 c3         1 M2O      -0.036900
      6 C15         -6.0100    49.3790     7.0240 ca         1 M2O      -0.231000
      7 C17         -4.5520    47.9790     5.6940 ca         1 M2O      -0.231000
      8 C21         -8.6750    49.9240     8.0380 c3         1 M2O       0.146400
      9 C24         -8.8410    44.1870     5.0580 c3         1 M2O       0.076400
     10 C11         -7.1080    48.5620     6.6920 ca         1 M2O       0.209100
     11 C14         -7.7810    44.8200     7.2860 c3         1 M2O       0.076400
     12 C16         -4.7270    49.1140     6.5070 ca         1 M2O       0.118200
     13 C18         -5.6430    47.1560     5.3560 ca         1 M2O       0.209100
     14 C19         -6.9250    47.4520     5.8520 ca         1 M2O      -0.271300
     15 C2          -3.6510    51.3370     6.8030 cd         1 M2O       0.117400
     16 C23         -4.2350    45.6640     3.9700 c3         1 M2O       0.146400
     17 C3          -3.5620    49.9410     6.8760 cc         1 M2O      -0.193200
     18 C9          -2.6910    53.6030     7.3500 c3         1 M2O       0.058300
     19 N13         -7.8570    45.1090     5.7840 nx         1 M2O      -0.658000
     20 O22         -5.4980    46.0400     4.5520 os         1 M2O      -0.375100
     21 O7          -0.3110    52.2700     7.7650 o          1 M2O      -0.531000
     22 H25         -2.2110    48.2450     7.1110 ha         1 M2O       0.182000
     23 H28          0.5180    49.7320     8.7010 hc         1 M2O       0.053033
     24 H26          0.1700    48.3980     7.5940 hc         1 M2O       0.053033
     25 H27          0.9320    49.8710     6.9830 hc         1 M2O       0.053033
     26 H32         -4.5790    52.9440     5.6490 hc         1 M2O       0.063700
     27 H33         -5.4200    51.4350     5.5110 hc         1 M2O       0.063700
     28 H34         -5.5550    52.3770     7.0120 hc         1 M2O       0.063700
     29 H41         -6.1320    50.2070     7.7120 ha         1 M2O       0.143000
     30 H42         -3.5640    47.7660     5.3040 ha         1 M2O       0.143000
     31 H43         -9.7420    49.9340     8.2930 h1         1 M2O       0.058200
     32 H44         -8.1050    49.8620     8.9730 h1         1 M2O       0.058200
     33 H45         -8.4380    50.8740     7.5420 h1         1 M2O       0.058200
     34 H50         -8.5710    43.1440     5.2390 hx         1 M2O       0.095367
     35 H51         -9.8520    44.3680     5.4320 hx         1 M2O       0.095367
     36 H49         -8.8120    44.3880     3.9840 hx         1 M2O       0.095367
     37 H36         -9.0080    46.8820     6.0350 hx         1 M2O       0.099200
     38 H35         -8.3210    46.6770     4.4240 hx         1 M2O       0.099200
     39 H40         -7.5110    43.7730     7.4490 hx         1 M2O       0.095367
     40 H38         -7.0280    45.4650     7.7450 hx         1 M2O       0.095367
     41 H39         -8.7530    45.0190     7.7440 hx         1 M2O       0.095367
     42 H46         -4.3500    44.7560     3.3650 h1         1 M2O       0.058200
     43 H47         -3.8530    46.4590     3.3180 h1         1 M2O       0.058200
     44 H48         -3.4900    45.4580     4.7500 h1         1 M2O       0.058200
     45 H30         -1.9800    53.9990     8.0860 h1         1 M2O       0.064367
     46 H31         -2.5060    54.0860     6.3830 h1         1 M2O       0.064367
     47 H29         -3.6960    53.8650     7.7020 h1         1 M2O       0.064367
     48 H37         -6.9050    44.9320     5.3810 hn         1 M2O       0.506000
     49 C10         -4.8660    52.0560     6.2230 c3         1 M2O      -0.079900
     50 O20         -8.3770    48.8080     7.1790 os         1 M2O      -0.375100
     51 C12         -8.1110    46.5740     5.4920 c3         1 M2O       0.191900
@<TRIPOS>BOND
     1     1     4 1   
     2     1    15 1   
     3     1    18 1   
     4     2     3 2   
     5     2    17 1   
     6     2    22 1   
     7     3     4 1   
     8     3     5 1   
     9     4    21 2   
    10     5    23 1   
    11     5    24 1   
    12     5    25 1   
    13     6    10 ar  
    14     6    12 ar  
    15     6    29 1   
    16     7    12 ar  
    17     7    13 ar  
    18     7    30 1   
    19     8    31 1   
    20     8    32 1   
    21     8    33 1   
    22     8    50 1   
    23     9    19 1   
    24     9    34 1   
    25     9    35 1   
    26     9    36 1   
    27    10    14 ar  
    28    10    50 1   
    29    11    19 1   
    30    11    39 1   
    31    11    40 1   
    32    11    41 1   
    33    12    17 1   
    34    13    14 ar  
    35    13    20 1   
    36    14    51 1   
    37    15    17 2   
    38    15    49 1   
    39    16    20 1   
    40    16    42 1   
    41    16    43 1   
    42    16    44 1   
    43    18    45 1   
    44    18    46 1   
    45    18    47 1   
    46    19    48 1   
    47    19    51 1   
    48    26    49 1   
    49    27    49 1   
    50    28    49 1   
    51    37    51 1   
    52    38    51 1   
@<TRIPOS>SUBSTRUCTURE
     1 M2O         1 TEMP              0 ****  ****    0 ROOT
