@<TRIPOS>MOLECULE
M2R
  134   133     1     0     0
SMALL
abcg2


@<TRIPOS>ATOM
      1 C13         50.3240    50.6280    18.7900 c3         1 M2R       0.141300
      2 C15         50.6160    51.2200    16.4910 c          1 M2R       0.618100
      3 C17         51.0790    49.7670    14.3860 c3         1 M2R      -0.058400
      4 C20         50.8870    45.9960    14.5860 c2         1 M2R      -0.205200
      5 C21         49.6470    45.6210    15.3560 c3         1 M2R      -0.016000
      6 C22         49.7480    44.2500    15.9560 c2         1 M2R      -0.227200
      7 C24         49.6270    44.9890    18.3650 c3         1 M2R      -0.019000
      8 C26         51.2500    46.0470    19.9700 c2         1 M2R      -0.220200
      9 C28         49.8020    45.3330    21.8970 c2         1 M2R      -0.228200
     10 C01         46.9250    53.1650    18.9770 c3         1 M2R       0.205600
     11 C02         46.0130    54.0560    18.1550 c3         1 M2R       0.087600
     12 C04         46.4860    52.7990    16.0760 c3         1 M2R       0.078233
     13 C05         45.1600    54.8220    16.0250 c3         1 M2R       0.078233
     14 C06         47.5450    54.9620    16.4530 c3         1 M2R       0.078233
     15 C12         48.8820    50.1330    18.9010 c3         1 M2R       0.211600
     16 C16         51.4720    50.9600    15.2750 c3         1 M2R      -0.143400
     17 C18         50.7470    48.4530    15.1090 c3         1 M2R      -0.052200
     18 C19         51.3530    47.2370    14.4680 c2         1 M2R      -0.231200
     19 C23         49.7060    43.9740    17.2590 c2         1 M2R      -0.202200
     20 C25         50.9980    45.4550    18.8050 c2         1 M2R      -0.222200
     21 C27         50.1760    46.4420    20.9440 c3         1 M2R      -0.019000
     22 C29         48.9790    45.4600    22.9370 c2         1 M2R      -0.216200
     23 C30         48.2170    46.7040    23.2910 c3         1 M2R      -0.046200
     24 C31         47.9430    46.8800    24.7910 c3         1 M2R      -0.069400
     25 C32         47.3490    45.6720    25.5120 c3         1 M2R      -0.071400
     26 C33         45.9390    45.2820    25.0350 c3         1 M2R      -0.076400
     27 C34         45.8960    44.2040    23.9560 c3         1 M2R      -0.090100
     28 C36         51.2100    49.8810    19.7640 c3         1 M2R       0.160600
     29 C38         53.5840    49.9670    19.5930 c          1 M2R       0.595100
     30 C40         54.7230    50.9460    19.4300 c3         1 M2R      -0.138400
     31 C41         55.8850    50.3400    18.6460 c3         1 M2R      -0.071400
     32 C42         55.6210    50.2410    17.1450 c3         1 M2R      -0.081400
     33 C43         55.3780    51.5980    16.4670 c3         1 M2R      -0.074400
     34 C44         55.8050    51.6750    14.9910 c3         1 M2R      -0.073400
     35 C45         55.5760    50.3860    14.2060 c3         1 M2R      -0.079400
     36 C46         55.8220    50.5360    12.7040 c3         1 M2R      -0.077400
     37 C47         55.0990    49.4760    11.8670 c3         1 M2R      -0.075400
     38 C48         55.3750    48.0500    12.3450 c3         1 M2R      -0.081400
     39 C49         54.8990    46.9880    11.3570 c3         1 M2R      -0.075400
     40 C50         55.1800    45.5580    11.8250 c3         1 M2R      -0.074400
     41 C51         54.3250    45.1290    13.0110 c3         1 M2R      -0.079400
     42 C52         54.5900    43.6940    13.4610 c3         1 M2R      -0.077400
     43 C53         53.8670    43.3230    14.7710 c3         1 M2R      -0.078400
     44 C54         54.8070    42.8160    15.8540 c3         1 M2R      -0.087100
     45 N03         46.3180    54.1510    16.6830 n4         1 M2R      -0.489000
     46 O07         46.3670    51.8750    19.0640 os         1 M2R      -0.599400
     47 O09         46.0270    49.6250    20.0840 o          1 M2R      -0.779500
     48 O10         46.6620    51.6630    21.6150 o          1 M2R      -0.779500
     49 O11         48.3750    50.6940    20.0920 os         1 M2R      -0.602400
     50 O14         50.8820    50.3830    17.4930 os         1 M2R      -0.444100
     51 O35         49.8210    52.1230    16.5810 o          1 M2R      -0.553000
     52 O37         52.4420    50.5890    19.8960 os         1 M2R      -0.460100
     53 O39         53.6810    48.7720    19.4910 o          1 M2R      -0.483000
     54 P08         46.7610    50.8980    20.3360 p5         1 M2R       1.378800
     55 H131        50.3580    51.7000    19.0070 h1         1 M2R       0.076700
     56 H172        51.9100    49.6030    13.6970 hc         1 M2R       0.043700
     57 H171        50.2240    50.0710    13.7800 hc         1 M2R       0.043700
     58 H201        51.4100    45.1920    14.0790 ha         1 M2R       0.174000
     59 H212        49.5050    46.3480    16.1550 hc         1 M2R       0.053700
     60 H211        48.7640    45.6850    14.7090 hc         1 M2R       0.053700
     61 H221        49.8080    43.4210    15.2560 ha         1 M2R       0.164000
     62 H242        49.0500    45.8590    18.0340 hc         1 M2R       0.057700
     63 H241        49.0920    44.5620    19.2170 hc         1 M2R       0.057700
     64 H261        52.2640    46.3610    20.1930 ha         1 M2R       0.184000
     65 H281        50.2630    44.3670    21.7200 ha         1 M2R       0.166000
     66 H012        47.9360    53.1240    18.5560 h1         1 M2R       0.058700
     67 H011        47.0340    53.6290    19.9600 h1         1 M2R       0.058700
     68 H022        46.0350    55.0780    18.5350 hx         1 M2R       0.087700
     69 H021        44.9810    53.7190    18.2470 hx         1 M2R       0.087700
     70 H043        47.3460    52.2990    16.5110 hx         1 M2R       0.092922
     71 H042        45.5890    52.2130    16.2590 hx         1 M2R       0.092922
     72 H041        46.6510    52.9200    15.0090 hx         1 M2R       0.092922
     73 H052        45.0610    55.8290    16.4240 hx         1 M2R       0.092922
     74 H051        45.3440    54.8810    14.9560 hx         1 M2R       0.092922
     75 H053        44.2550    54.2570    16.2290 hx         1 M2R       0.092922
     76 H062        48.3920    54.4860    16.9370 hx         1 M2R       0.092922
     77 H061        47.7400    55.0020    15.3840 hx         1 M2R       0.092922
     78 H063        47.3960    55.9600    16.8550 hx         1 M2R       0.092922
     79 H122        48.3070    50.4310    18.0210 h1         1 M2R       0.033200
     80 H121        48.8660    49.0370    18.9580 h1         1 M2R       0.033200
     81 H162        52.5030    50.8310    15.6130 hc         1 M2R       0.070200
     82 H161        51.4260    51.8680    14.6750 hc         1 M2R       0.070200
     83 H182        51.0960    48.4900    16.1440 hc         1 M2R       0.060200
     84 H181        49.6630    48.3440    15.1810 hc         1 M2R       0.060200
     85 H191        52.2610    47.3970    13.8900 ha         1 M2R       0.168000
     86 H231        49.7780    42.9350    17.5670 ha         1 M2R       0.168000
     87 H251        51.8250    45.2130    18.1440 ha         1 M2R       0.172000
     88 H271        50.4970    47.3220    21.5060 hc         1 M2R       0.054200
     89 H272        49.2820    46.7450    20.3890 hc         1 M2R       0.054200
     90 H291        48.7440    44.5530    23.4830 ha         1 M2R       0.166000
     91 H302        48.7820    47.5710    22.9420 hc         1 M2R       0.057700
     92 H301        47.2590    46.6960    22.7570 hc         1 M2R       0.057700
     93 H311        48.8760    47.1700    25.2830 hc         1 M2R       0.040200
     94 H312        47.2460    47.7140    24.9100 hc         1 M2R       0.040200
     95 H321        48.0150    44.8070    25.4500 hc         1 M2R       0.032200
     96 H322        47.2910    45.9200    26.5750 hc         1 M2R       0.032200
     97 H331        45.4520    46.1790    24.6380 hc         1 M2R       0.036700
     98 H332        45.3310    44.9690    25.8860 hc         1 M2R       0.036700
     99 H342        44.8720    43.9930    23.6470 hc         1 M2R       0.030033
    100 H341        46.4650    44.4830    23.0670 hc         1 M2R       0.030033
    101 H343        46.3290    43.2680    24.3180 hc         1 M2R       0.030033
    102 H362        50.7240    49.8340    20.7400 h1         1 M2R       0.090200
    103 H361        51.3880    48.8630    19.4160 h1         1 M2R       0.090200
    104 H402        55.0480    51.2640    20.4240 hc         1 M2R       0.071200
    105 H401        54.3220    51.8210    18.9140 hc         1 M2R       0.071200
    106 H412        56.0870    49.3390    19.0310 hc         1 M2R       0.053700
    107 H411        56.7900    50.9230    18.8360 hc         1 M2R       0.053700
    108 H422        54.7510    49.5940    16.9930 hc         1 M2R       0.048200
    109 H421        56.4710    49.7300    16.6880 hc         1 M2R       0.048200
    110 H431        55.8960    52.3700    17.0430 hc         1 M2R       0.034200
    111 H432        54.3110    51.8270    16.5150 hc         1 M2R       0.034200
    112 H442        56.8560    51.9710    14.9220 hc         1 M2R       0.035700
    113 H441        55.2200    52.4620    14.5080 hc         1 M2R       0.035700
    114 H451        54.5420    50.0540    14.3620 hc         1 M2R       0.040700
    115 H452        56.2170    49.5930    14.5930 hc         1 M2R       0.040700
    116 H461        56.8940    50.4730    12.4920 hc         1 M2R       0.037200
    117 H462        55.4920    51.5270    12.3790 hc         1 M2R       0.037200
    118 H471        55.4330    49.5680    10.8290 hc         1 M2R       0.036700
    119 H472        54.0230    49.6710    11.9030 hc         1 M2R       0.036700
    120 H481        54.8850    47.8960    13.3100 hc         1 M2R       0.041700
    121 H482        56.4530    47.9300    12.4990 hc         1 M2R       0.041700
    122 H491        55.3960    47.1590    10.3980 hc         1 M2R       0.037200
    123 H492        53.8220    47.1060    11.1970 hc         1 M2R       0.037200
    124 H502        54.9990    44.8720    10.9930 hc         1 M2R       0.039200
    125 H501        56.2390    45.4710    12.0920 hc         1 M2R       0.039200
    126 H512        54.5130    45.7820    13.8690 hc         1 M2R       0.038700
    127 H511        53.2660    45.2290    12.7490 hc         1 M2R       0.038700
    128 H521        54.3120    42.9960    12.6660 hc         1 M2R       0.036200
    129 H522        55.6690    43.5720    13.6040 hc         1 M2R       0.036200
    130 H531        53.3270    44.1990    15.1480 hc         1 M2R       0.038700
    131 H532        53.0890    42.5800    14.5790 hc         1 M2R       0.038700
    132 H543        54.2640    42.5690    16.7690 hc         1 M2R       0.032033
    133 H542        55.3160    41.9020    15.5400 hc         1 M2R       0.032033
    134 H541        55.5650    43.5600    16.1010 hc         1 M2R       0.032033
@<TRIPOS>BOND
     1     1    15 1   
     2     1    28 1   
     3     1    50 1   
     4     1    55 1   
     5     2    16 1   
     6     2    50 1   
     7     2    51 2   
     8     3    16 1   
     9     3    17 1   
    10     3    56 1   
    11     3    57 1   
    12     4     5 1   
    13     4    18 2   
    14     4    58 1   
    15     5     6 1   
    16     5    59 1   
    17     5    60 1   
    18     6    19 2   
    19     6    61 1   
    20     7    19 1   
    21     7    20 1   
    22     7    62 1   
    23     7    63 1   
    24     8    20 2   
    25     8    21 1   
    26     8    64 1   
    27     9    21 1   
    28     9    22 2   
    29     9    65 1   
    30    10    11 1   
    31    10    46 1   
    32    10    66 1   
    33    10    67 1   
    34    11    45 1   
    35    11    68 1   
    36    11    69 1   
    37    12    45 1   
    38    12    70 1   
    39    12    71 1   
    40    12    72 1   
    41    13    45 1   
    42    13    73 1   
    43    13    74 1   
    44    13    75 1   
    45    14    45 1   
    46    14    76 1   
    47    14    77 1   
    48    14    78 1   
    49    15    49 1   
    50    15    79 1   
    51    15    80 1   
    52    16    81 1   
    53    16    82 1   
    54    17    18 1   
    55    17    83 1   
    56    17    84 1   
    57    18    85 1   
    58    19    86 1   
    59    20    87 1   
    60    21    88 1   
    61    21    89 1   
    62    22    23 1   
    63    22    90 1   
    64    23    24 1   
    65    23    91 1   
    66    23    92 1   
    67    24    25 1   
    68    24    93 1   
    69    24    94 1   
    70    25    26 1   
    71    25    95 1   
    72    25    96 1   
    73    26    27 1   
    74    26    97 1   
    75    26    98 1   
    76    27    99 1   
    77    27   100 1   
    78    27   101 1   
    79    28    52 1   
    80    28   102 1   
    81    28   103 1   
    82    29    30 1   
    83    29    52 1   
    84    29    53 2   
    85    30    31 1   
    86    30   104 1   
    87    30   105 1   
    88    31    32 1   
    89    31   106 1   
    90    31   107 1   
    91    32    33 1   
    92    32   108 1   
    93    32   109 1   
    94    33    34 1   
    95    33   110 1   
    96    33   111 1   
    97    34    35 1   
    98    34   112 1   
    99    34   113 1   
   100    35    36 1   
   101    35   114 1   
   102    35   115 1   
   103    36    37 1   
   104    36   116 1   
   105    36   117 1   
   106    37    38 1   
   107    37   118 1   
   108    37   119 1   
   109    38    39 1   
   110    38   120 1   
   111    38   121 1   
   112    39    40 1   
   113    39   122 1   
   114    39   123 1   
   115    40    41 1   
   116    40   124 1   
   117    40   125 1   
   118    41    42 1   
   119    41   126 1   
   120    41   127 1   
   121    42    43 1   
   122    42   128 1   
   123    42   129 1   
   124    43    44 1   
   125    43   130 1   
   126    43   131 1   
   127    44   132 1   
   128    44   133 1   
   129    44   134 1   
   130    46    54 1   
   131    47    54 1   
   132    48    54 1   
   133    49    54 1   
@<TRIPOS>SUBSTRUCTURE
     1 M2R         1 TEMP              0 ****  ****    0 ROOT
