@<TRIPOS>MOLECULE
M2R
  134   133     1     0     0
SMALL
No Charge or Current Charge


@<TRIPOS>ATOM
      1 C13         50.2040    50.1690    18.5820 c3         1 M2R       0.141300
      2 C15         50.9390    50.5190    16.2980 c          1 M2R       0.618100
      3 C17         51.1960    49.0000    14.2700 c3         1 M2R      -0.058400
      4 C20         49.0390    45.8580    14.3540 c2         1 M2R      -0.205200
      5 C21         48.4910    45.5590    15.7370 c3         1 M2R      -0.016000
      6 C22         48.9290    44.1840    16.2000 c2         1 M2R      -0.227200
      7 C24         50.5520    44.9260    18.0290 c3         1 M2R      -0.019000
      8 C26         52.1910    44.5920    19.9680 c2         1 M2R      -0.220200
      9 C28         50.6900    45.0180    21.9160 c2         1 M2R      -0.228200
     10 C01         45.5940    51.5290    18.7120 c3         1 M2R       0.205600
     11 C02         45.4030    52.5160    17.5330 c3         1 M2R       0.087600
     12 C04         46.8950    51.6070    15.7010 c3         1 M2R       0.078233
     13 C05         46.2200    54.0030    15.6900 c3         1 M2R       0.078233
     14 C06         47.8420    53.1870    17.4010 c3         1 M2R       0.078233
     15 C12         48.9000    49.3700    18.3180 c3         1 M2R       0.211600
     16 C16         51.8940    50.0030    15.2210 c3         1 M2R      -0.143400
     17 C18         50.6880    47.7200    14.9700 c3         1 M2R      -0.052200
     18 C19         49.9660    46.7750    14.0250 c2         1 M2R      -0.231200
     19 C23         49.7960    43.9100    17.1920 c2         1 M2R      -0.202200
     20 C25         51.7430    44.3010    18.7340 c2         1 M2R      -0.222200
     21 C27         51.6370    45.6440    20.9090 c3         1 M2R      -0.019000
     22 C29         49.4660    45.4510    22.2690 c2         1 M2R      -0.216200
     23 C30         48.7240    46.6670    21.7380 c3         1 M2R      -0.046200
     24 C31         48.9810    47.9410    22.5730 c3         1 M2R      -0.069400
     25 C32         48.6420    47.8670    24.0860 c3         1 M2R      -0.071400
     26 C33         47.1400    47.7370    24.4500 c3         1 M2R      -0.076400
     27 C34         46.5950    46.2930    24.5020 c3         1 M2R      -0.090100
     28 C36         50.8620    49.7720    19.9290 c3         1 M2R       0.160600
     29 C38         53.2460    50.2340    19.8010 c          1 M2R       0.595100
     30 C40         54.2870    51.3140    20.1250 c3         1 M2R      -0.138400
     31 C41         55.7590    51.0100    19.7400 c3         1 M2R      -0.071400
     32 C42         56.0440    50.9420    18.2200 c3         1 M2R      -0.081400
     33 C43         55.8110    52.2750    17.4670 c3         1 M2R      -0.074400
     34 C44         56.2820    52.2580    15.9930 c3         1 M2R      -0.073400
     35 C45         55.4760    51.3050    15.0810 c3         1 M2R      -0.079400
     36 C46         55.9740    51.3030    13.6180 c3         1 M2R      -0.077400
     37 C47         55.1730    50.3820    12.6650 c3         1 M2R      -0.075400
     38 C48         55.2220    48.8820    13.0370 c3         1 M2R      -0.081400
     39 C49         54.6230    47.9650    11.9450 c3         1 M2R      -0.075400
     40 C50         54.6620    46.4560    12.2900 c3         1 M2R      -0.074400
     41 C51         53.6990    46.0400    13.4260 c3         1 M2R      -0.079400
     42 C52         53.7220    44.5250    13.7180 c3         1 M2R      -0.077400
     43 C53         52.7350    44.1090    14.8310 c3         1 M2R      -0.078400
     44 C54         52.7590    42.5950    15.1200 c3         1 M2R      -0.087100
     45 N03         46.5930    52.8200    16.5910 n4         1 M2R      -0.489000
     46 O07         45.9050    50.2290    18.1950 os         1 M2R      -0.599400
     47 O09         46.4220    47.7530    18.6140 o          1 M2R      -0.779500
     48 O10         45.7220    49.1740    20.5150 o          1 M2R      -0.779500
     49 O11         47.9630    49.6580    19.3610 os         1 M2R      -0.602400
     50 O14         51.1290    49.8930    17.5030 os         1 M2R      -0.444100
     51 O35         50.1030    51.3880    16.0940 o          1 M2R      -0.553000
     52 O37         51.9940    50.6320    20.1960 os         1 M2R      -0.460100
     53 O39         53.5050    49.1480    19.3010 o          1 M2R      -0.483000
     54 P08         46.4540    49.1150    19.2180 p5         1 M2R       1.378800
     55 H131        49.9650    51.2390    18.6300 h1         1 M2R       0.076700
     56 H172        51.8980    48.7220    13.4760 hc         1 M2R       0.043700
     57 H171        50.3510    49.5010    13.7810 hc         1 M2R       0.043700
     58 H201        48.6000    45.2370    13.5710 ha         1 M2R       0.174000
     59 H212        48.7840    46.3230    16.4630 hc         1 M2R       0.053700
     60 H211        47.3950    45.6010    15.7100 hc         1 M2R       0.053700
     61 H221        48.4490    43.3640    15.6630 ha         1 M2R       0.164000
     62 H242        50.9030    45.7470    17.3930 hc         1 M2R       0.057700
     63 H241        49.8620    45.3720    18.7550 hc         1 M2R       0.057700
     64 H261        53.0600    44.0620    20.3650 ha         1 M2R       0.184000
     65 H281        51.0920    44.1200    22.3870 ha         1 M2R       0.166000
     66 H012        46.3910    51.8970    19.3710 h1         1 M2R       0.058700
     67 H011        44.6650    51.4950    19.2960 h1         1 M2R       0.058700
     68 H022        45.0920    53.4710    17.9630 hx         1 M2R       0.087700
     69 H021        44.5820    52.1520    16.9130 hx         1 M2R       0.087700
     70 H043        47.1640    50.7580    16.3290 hx         1 M2R       0.092922
     71 H042        46.0090    51.3620    15.1130 hx         1 M2R       0.092922
     72 H041        47.7270    51.8480    15.0370 hx         1 M2R       0.092922
     73 H052        46.0110    54.8770    16.3100 hx         1 M2R       0.092922
     74 H051        47.0530    54.2200    15.0180 hx         1 M2R       0.092922
     75 H053        45.3340    53.7460    15.1060 hx         1 M2R       0.092922
     76 H062        48.1250    52.3370    18.0260 hx         1 M2R       0.092922
     77 H061        48.6590    53.4200    16.7150 hx         1 M2R       0.092922
     78 H063        47.6270    54.0540    18.0280 hx         1 M2R       0.092922
     79 H122        48.4880    49.6460    17.3400 h1         1 M2R       0.033200
     80 H121        49.1340    48.2970    18.2970 h1         1 M2R       0.033200
     81 H162        52.7430    49.4950    15.6940 hc         1 M2R       0.070200
     82 H161        52.2390    50.8530    14.6240 hc         1 M2R       0.070200
     83 H182        51.5450    47.2030    15.4210 hc         1 M2R       0.060200
     84 H181        50.0280    48.0060    15.7940 hc         1 M2R       0.060200
     85 H191        50.2630    46.8750    12.9790 ha         1 M2R       0.168000
     86 H231        50.0070    42.8700    17.4460 ha         1 M2R       0.168000
     87 H251        52.2550    43.5350    18.1480 ha         1 M2R       0.172000
     88 H271        52.4680    46.1260    21.4400 hc         1 M2R       0.054200
     89 H272        51.1560    46.4470    20.3440 hc         1 M2R       0.054200
     90 H291        48.9010    44.8900    23.0160 ha         1 M2R       0.166000
     91 H302        49.0130    46.8750    20.7020 hc         1 M2R       0.057700
     92 H301        47.6480    46.4690    21.6860 hc         1 M2R       0.057700
     93 H311        50.0440    48.1960    22.4790 hc         1 M2R       0.040200
     94 H312        48.4250    48.7740    22.1270 hc         1 M2R       0.040200
     95 H321        49.2130    47.0590    24.5610 hc         1 M2R       0.032200
     96 H322        49.0100    48.7950    24.5410 hc         1 M2R       0.032200
     97 H331        46.5360    48.3340    23.7550 hc         1 M2R       0.036700
     98 H332        46.9930    48.1800    25.4420 hc         1 M2R       0.036700
     99 H342        45.5670    46.2930    24.8860 hc         1 M2R       0.030033
    100 H341        46.5780    45.8260    23.5130 hc         1 M2R       0.030033
    101 H343        47.2040    45.6720    25.1700 hc         1 M2R       0.030033
    102 H362        50.1140    49.9110    20.7190 h1         1 M2R       0.090200
    103 H361        51.1340    48.7090    19.9250 h1         1 M2R       0.090200
    104 H402        54.1990    51.5190    21.1980 hc         1 M2R       0.071200
    105 H401        53.9300    52.2660    19.7190 hc         1 M2R       0.071200
    106 H412        56.0570    50.0590    20.2000 hc         1 M2R       0.053700
    107 H411        56.4040    51.7790    20.1830 hc         1 M2R       0.053700
    108 H422        55.4320    50.1510    17.7710 hc         1 M2R       0.048200
    109 H421        57.0900    50.6390    18.0820 hc         1 M2R       0.048200
    110 H431        56.3490    53.0750    17.9910 hc         1 M2R       0.034200
    111 H432        54.7470    52.5380    17.4980 hc         1 M2R       0.034200
    112 H442        57.3440    51.9860    15.9580 hc         1 M2R       0.035700
    113 H441        56.2060    53.2770    15.5920 hc         1 M2R       0.035700
    114 H451        54.4220    51.6020    15.1030 hc         1 M2R       0.040700
    115 H452        55.5370    50.2870    15.4810 hc         1 M2R       0.040700
    116 H461        57.0300    51.0050    13.5970 hc         1 M2R       0.037200
    117 H462        55.9310    52.3270    13.2270 hc         1 M2R       0.037200
    118 H471        55.5740    50.5100    11.6520 hc         1 M2R       0.036700
    119 H472        54.1280    50.7130    12.6320 hc         1 M2R       0.036700
    120 H481        54.6780    48.7310    13.9760 hc         1 M2R       0.041700
    121 H482        56.2640    48.5870    13.2170 hc         1 M2R       0.041700
    122 H491        55.1840    48.1190    11.0140 hc         1 M2R       0.037200
    123 H492        53.5890    48.2640    11.7380 hc         1 M2R       0.037200
    124 H502        54.4030    45.8900    11.3870 hc         1 M2R       0.039200
    125 H501        55.6870    46.1710    12.5550 hc         1 M2R       0.039200
    126 H512        53.9510    46.5810    14.3460 hc         1 M2R       0.038700
    127 H511        52.6810    46.3310    13.1470 hc         1 M2R       0.038700
    128 H521        53.4780    43.9770    12.8000 hc         1 M2R       0.036200
    129 H522        54.7380    44.2290    14.0080 hc         1 M2R       0.036200
    130 H531        52.9720    44.6540    15.7530 hc         1 M2R       0.038700
    131 H532        51.7170    44.3980    14.5430 hc         1 M2R       0.038700
    132 H543        52.0330    42.3420    15.9010 hc         1 M2R       0.032033
    133 H542        52.5030    42.0250    14.2190 hc         1 M2R       0.032033
    134 H541        53.7530    42.2810    15.4590 hc         1 M2R       0.032033
@<TRIPOS>BOND
     1     1    15 1   
     2     1    28 1   
     3     1    50 1   
     4     1    55 1   
     5     2    16 1   
     6     2    50 1   
     7     2    51 2   
     8     3    16 1   
     9     3    17 1   
    10     3    56 1   
    11     3    57 1   
    12     4     5 1   
    13     4    18 2   
    14     4    58 1   
    15     5     6 1   
    16     5    59 1   
    17     5    60 1   
    18     6    19 2   
    19     6    61 1   
    20     7    19 1   
    21     7    20 1   
    22     7    62 1   
    23     7    63 1   
    24     8    20 2   
    25     8    21 1   
    26     8    64 1   
    27     9    21 1   
    28     9    22 2   
    29     9    65 1   
    30    10    11 1   
    31    10    46 1   
    32    10    66 1   
    33    10    67 1   
    34    11    45 1   
    35    11    68 1   
    36    11    69 1   
    37    12    45 1   
    38    12    70 1   
    39    12    71 1   
    40    12    72 1   
    41    13    45 1   
    42    13    73 1   
    43    13    74 1   
    44    13    75 1   
    45    14    45 1   
    46    14    76 1   
    47    14    77 1   
    48    14    78 1   
    49    15    49 1   
    50    15    79 1   
    51    15    80 1   
    52    16    81 1   
    53    16    82 1   
    54    17    18 1   
    55    17    83 1   
    56    17    84 1   
    57    18    85 1   
    58    19    86 1   
    59    20    87 1   
    60    21    88 1   
    61    21    89 1   
    62    22    23 1   
    63    22    90 1   
    64    23    24 1   
    65    23    91 1   
    66    23    92 1   
    67    24    25 1   
    68    24    93 1   
    69    24    94 1   
    70    25    26 1   
    71    25    95 1   
    72    25    96 1   
    73    26    27 1   
    74    26    97 1   
    75    26    98 1   
    76    27    99 1   
    77    27   100 1   
    78    27   101 1   
    79    28    52 1   
    80    28   102 1   
    81    28   103 1   
    82    29    30 1   
    83    29    52 1   
    84    29    53 2   
    85    30    31 1   
    86    30   104 1   
    87    30   105 1   
    88    31    32 1   
    89    31   106 1   
    90    31   107 1   
    91    32    33 1   
    92    32   108 1   
    93    32   109 1   
    94    33    34 1   
    95    33   110 1   
    96    33   111 1   
    97    34    35 1   
    98    34   112 1   
    99    34   113 1   
   100    35    36 1   
   101    35   114 1   
   102    35   115 1   
   103    36    37 1   
   104    36   116 1   
   105    36   117 1   
   106    37    38 1   
   107    37   118 1   
   108    37   119 1   
   109    38    39 1   
   110    38   120 1   
   111    38   121 1   
   112    39    40 1   
   113    39   122 1   
   114    39   123 1   
   115    40    41 1   
   116    40   124 1   
   117    40   125 1   
   118    41    42 1   
   119    41   126 1   
   120    41   127 1   
   121    42    43 1   
   122    42   128 1   
   123    42   129 1   
   124    43    44 1   
   125    43   130 1   
   126    43   131 1   
   127    44   132 1   
   128    44   133 1   
   129    44   134 1   
   130    46    54 1   
   131    47    54 1   
   132    48    54 1   
   133    49    54 1   
@<TRIPOS>SUBSTRUCTURE
     1 M2R         1 TEMP              0 ****  ****    0 ROOT
