@<TRIPOS>MOLECULE
M2S
   26    25     1     0     0
SMALL
No Charge or Current Charge


@<TRIPOS>ATOM
      1 N          -13.7280    -0.1780     3.9050 n8         1 M2S      -0.901800
      2 CA         -14.4650     1.0270     4.4620 c3         1 M2S       0.024500
      3 CB         -14.3900     1.0940     6.0370 c3         1 M2S       0.008000
      4 CG1        -15.2120     2.3170     6.5410 c3         1 M2S      -0.083100
      5 CG2        -15.0320    -0.1930     6.6390 c3         1 M2S      -0.083100
      6 CG         -12.8990     1.2100     6.5000 c3         1 M2S       0.014900
      7 SD         -12.6620     1.2690     8.3440 s4         1 M2S       0.086600
      8 OE         -12.8570     2.7020     8.7860 o          1 M2S      -0.498200
      9 CE         -10.8420     0.9580     8.3320 c3         1 M2S      -0.061800
     10 C          -14.1390     2.4260     3.7680 c          1 M2S       0.904600
     11 O          -12.9650     2.7390     3.5990 o          1 M2S      -0.833800
     12 OXT        -15.0600     3.0570     3.2580 o          1 M2S      -0.833800
     13 H          -13.9660    -0.2870     2.9130 hn         1 M2S       0.330800
     14 H2         -12.7240     0.0300     3.8920 hn         1 M2S       0.330800
     15 HA         -15.5210     0.8420     4.2240 h1         1 M2S       0.034700
     16 HG11       -15.3320     2.2980     7.6300 hc         1 M2S       0.028700
     17 HG12       -14.7250     3.2640     6.2780 hc         1 M2S       0.028700
     18 HG13       -16.2180     2.3170     6.1030 hc         1 M2S       0.028700
     19 HG21       -14.4420    -1.0850     6.3990 hc         1 M2S       0.028700
     20 HG22       -15.1090    -0.1320     7.7310 hc         1 M2S       0.028700
     21 HG23       -16.0460    -0.3420     6.2480 hc         1 M2S       0.028700
     22 HG2        -12.3360     0.3410     6.1380 h1         1 M2S       0.094700
     23 HG3        -12.4360     2.1130     6.0870 h1         1 M2S       0.094700
     24 HE1        -10.6590    -0.0730     8.0060 h1         1 M2S       0.066700
     25 HE2        -10.3600     1.6620     7.6430 h1         1 M2S       0.066700
     26 HE3        -10.4520     1.1020     9.3470 h1         1 M2S       0.066700
@<TRIPOS>BOND
     1     1     2 1   
     2     1    13 1   
     3     1    14 1   
     4     2     3 1   
     5     2    10 1   
     6     2    15 1   
     7     3     4 1   
     8     3     5 1   
     9     3     6 1   
    10     4    16 1   
    11     4    17 1   
    12     4    18 1   
    13     5    19 1   
    14     5    20 1   
    15     5    21 1   
    16     6     7 1   
    17     6    22 1   
    18     6    23 1   
    19     7     8 2   
    20     7     9 1   
    21     9    24 1   
    22     9    25 1   
    23     9    26 1   
    24    10    11 1   
    25    10    12 1   
@<TRIPOS>SUBSTRUCTURE
     1 M2S         1 TEMP              0 ****  ****    0 ROOT
