@<TRIPOS>MOLECULE
M2S
   26    25     1     0     0
SMALL
bcc


@<TRIPOS>ATOM
      1 N          -13.6310    -0.0870     4.0010 n8         1 M2S      -0.901800
      2 CA         -14.4470     1.0230     4.4860 c3         1 M2S       0.024500
      3 CB         -14.3890     1.1020     6.0420 c3         1 M2S       0.008000
      4 CG1        -15.2170     2.2870     6.5460 c3         1 M2S      -0.083100
      5 CG2        -14.9910    -0.1870     6.6080 c3         1 M2S      -0.083100
      6 CG         -12.9220     1.2160     6.4720 c3         1 M2S       0.014900
      7 SD         -12.6920     1.3740     8.2700 s4         1 M2S       0.086600
      8 OE         -12.7700     2.8470     8.6150 o          1 M2S      -0.498200
      9 CE         -10.9370     0.9450     8.2930 c3         1 M2S      -0.061800
     10 C          -14.0940     2.3710     3.8030 c          1 M2S       0.904600
     11 O          -12.8800     2.5810     3.5820 o          1 M2S      -0.833800
     12 OXT        -15.0410     3.1310     3.5240 o          1 M2S      -0.833800
     13 H          -13.9990    -0.3940     3.1090 hn         1 M2S       0.330800
     14 H2         -12.7100     0.2820     3.7900 hn         1 M2S       0.330800
     15 HA         -15.4910     0.7940     4.2500 h1         1 M2S       0.034700
     16 HG11       -15.3390     2.2480     7.6300 hc         1 M2S       0.028700
     17 HG12       -14.7670     3.2480     6.3010 hc         1 M2S       0.028700
     18 HG13       -16.2150     2.2610     6.1090 hc         1 M2S       0.028700
     19 HG21       -14.4510    -1.0640     6.2510 hc         1 M2S       0.028700
     20 HG22       -14.9730    -0.1960     7.6990 hc         1 M2S       0.028700
     21 HG23       -16.0340    -0.2860     6.3000 hc         1 M2S       0.028700
     22 HG2        -12.3830     0.3160     6.1680 h1         1 M2S       0.094700
     23 HG3        -12.4250     2.0830     6.0320 h1         1 M2S       0.094700
     24 HE1        -10.8130    -0.1020     8.0220 h1         1 M2S       0.066700
     25 HE2        -10.3910     1.5830     7.5990 h1         1 M2S       0.066700
     26 HE3        -10.5730     1.1010     9.3070 h1         1 M2S       0.066700
@<TRIPOS>BOND
     1     1     2 1   
     2     1    13 1   
     3     1    14 1   
     4     2     3 1   
     5     2    10 1   
     6     2    15 1   
     7     3     4 1   
     8     3     5 1   
     9     3     6 1   
    10     4    16 1   
    11     4    17 1   
    12     4    18 1   
    13     5    19 1   
    14     5    20 1   
    15     5    21 1   
    16     6     7 1   
    17     6    22 1   
    18     6    23 1   
    19     7     8 2   
    20     7     9 1   
    21     9    24 1   
    22     9    25 1   
    23     9    26 1   
    24    10    11 1   
    25    10    12 1   
@<TRIPOS>SUBSTRUCTURE
     1 M2S         1 TEMP              0 ****  ****    0 ROOT
