@<TRIPOS>MOLECULE
M2T
   40    42     1     0     0
SMALL
No Charge or Current Charge


@<TRIPOS>ATOM
      1 CG           3.4720    -2.1440    -1.0620 c3         1 M2T      -0.116100
      2 SD           4.3150    -0.8410    -0.1150 s6         1 M2T      -0.310800
      3 CE           5.4690    -1.5840     1.0760 c3         1 M2T      -0.116100
      4 C5           3.1050     0.2080     0.7570 c3         1 M2T      -0.241400
      5 C4           2.2140     1.1750    -0.0600 c5         1 M2T       0.208300
      6 O4           1.4370     0.4320    -1.0260 os         1 M2T      -0.463000
      7 C1           0.0850     0.9520    -1.0620 c5         1 M2T       0.324300
      8 N9          -0.8180    -0.0460    -0.4860 na         1 M2T      -0.308300
      9 C9          -2.1870    -0.0170    -0.4340 ca         1 M2T       0.118500
     10 N3          -3.0660     0.9010    -0.8840 nb         1 M2T      -0.219000
     11 C2          -4.3740     0.6230    -0.6730 ca         1 M2T       0.178900
     12 N1          -4.8790    -0.4740    -0.0610 nb         1 M2T      -0.303000
     13 C6          -3.9800    -1.3680     0.3780 ca         1 M2T       0.448900
     14 N6          -4.4850    -2.4730     0.9890 nv         1 M2T      -1.064900
     15 C7          -2.5940    -1.1640     0.1990 ca         1 M2T      -0.098600
     16 N7          -1.5270    -1.9740     0.5700 nc         1 M2T      -0.563100
     17 C8          -0.4700    -1.2610     0.1340 cd         1 M2T       0.415700
     18 C10          0.1310     2.3240    -0.3020 c5         1 M2T       0.098300
     19 O2           0.6050     3.4270    -1.0920 oh         1 M2T      -0.706000
     20 C3           1.1720     1.9740     0.7930 c5         1 M2T       0.085300
     21 O3           1.7040     3.1660     1.4020 oh         1 M2T      -0.708000
     22 HG           2.8440    -2.7270    -0.3770 h1         1 M2T       0.064533
     23 HGA          2.8530    -1.6770    -1.8380 h1         1 M2T       0.064533
     24 HGB          4.2290    -2.7920    -1.5240 h1         1 M2T       0.064533
     25 HE           4.8990    -2.2050     1.7780 h1         1 M2T       0.064533
     26 HEA          6.1950    -2.2000     0.5310 h1         1 M2T       0.064533
     27 HEB          5.9860    -0.7800     1.6170 h1         1 M2T       0.064533
     28 H5           2.4600    -0.4700     1.3300 h1         1 M2T       0.046700
     29 H5'A         3.6820     0.8010     1.4780 h1         1 M2T       0.046700
     30 H4           2.8630     1.8680    -0.6140 h1         1 M2T       0.054700
     31 H1          -0.2460     1.0960    -2.0990 h2         1 M2T       0.118700
     32 H2          -5.0930     1.3570    -1.0330 h5         1 M2T       0.045100
     33 HN6         -5.4610    -2.7040     0.8240 hn         1 M2T       0.505000
     34 HN6A        -3.8480    -3.2530     1.1290 hn         1 M2T       0.505000
     35 H8           0.5660    -1.5630     0.2350 h5         1 M2T       0.075800
     36 H6          -0.8450     2.5630     0.1420 h1         1 M2T       0.077700
     37 HO2          1.1780     3.9270    -0.4570 ho         1 M2T       0.523000
     38 H3           0.7180     1.3220     1.5530 h1         1 M2T       0.058700
     39 HO3          2.2830     2.8810     2.1500 ho         1 M2T       0.512000
     40 HSD          5.0460    -0.0550    -0.9980 hs         1 M2T       0.385800
@<TRIPOS>BOND
     1     1     2 1   
     2     1    22 1   
     3     1    23 1   
     4     1    24 1   
     5     2     3 1   
     6     2     4 1   
     7     2    40 1   
     8     3    25 1   
     9     3    26 1   
    10     3    27 1   
    11     4     5 1   
    12     4    28 1   
    13     4    29 1   
    14     5     6 1   
    15     5    20 1   
    16     5    30 1   
    17     6     7 1   
    18     7     8 1   
    19     7    18 1   
    20     7    31 1   
    21     8     9 1   
    22     8    17 1   
    23     9    10 ar  
    24     9    15 ar  
    25    10    11 ar  
    26    11    12 ar  
    27    11    32 1   
    28    12    13 ar  
    29    13    14 1   
    30    13    15 ar  
    31    14    33 1   
    32    14    34 1   
    33    15    16 1   
    34    16    17 2   
    35    17    35 1   
    36    18    19 1   
    37    18    20 1   
    38    18    36 1   
    39    19    37 1   
    40    20    21 1   
    41    20    38 1   
    42    21    39 1   
@<TRIPOS>SUBSTRUCTURE
     1 M2T         1 TEMP              0 ****  ****    0 ROOT
