@<TRIPOS>MOLECULE
M2T
   40    42     1     0     0
SMALL
bcc


@<TRIPOS>ATOM
      1 CG           5.2860    -1.9160    -1.8050 c3         1 M2T      -0.005300
      2 SD           3.9960    -1.1460    -0.4930 s6         1 M2T      -0.643200
      3 CE           5.0480    -1.7030     0.8690 c3         1 M2T      -0.005300
      4 C5           2.9350     0.0160     0.8650 c3         1 M2T      -0.130600
      5 C4           2.0790     0.9520     0.0690 c5         1 M2T       0.185100
      6 O4           1.2160     0.2100    -0.8130 os         1 M2T      -0.416600
      7 C1          -0.0550     0.7700    -0.8760 c5         1 M2T       0.271800
      8 N9          -1.0000    -0.1250    -0.2080 na         1 M2T      -0.279000
      9 C9          -2.3580    -0.0290    -0.2720 ca         1 M2T       0.446800
     10 N3          -3.0890     0.8770    -0.9200 nb         1 M2T      -0.745000
     11 C2          -4.3830     0.6610    -0.7630 ca         1 M2T       0.704900
     12 N1          -4.9830    -0.3040    -0.0700 nb         1 M2T      -0.829000
     13 C6          -4.2340    -1.2060     0.5750 ca         1 M2T       0.777200
     14 N6          -4.8340    -2.1670     1.2810 nv         1 M2T      -0.954500
     15 C7          -2.8350    -1.0870     0.4870 ca         1 M2T      -0.229200
     16 N7          -1.8000    -1.8200     1.0010 nc         1 M2T      -0.563100
     17 C8          -0.7300    -1.2200     0.5650 cd         1 M2T       0.415700
     18 C10          0.0160     2.1250    -0.1730 c5         1 M2T       0.075100
     19 O2           0.4280     3.0760    -1.1170 oh         1 M2T      -0.583800
     20 C3           1.1200     1.8540     0.8530 c5         1 M2T       0.062100
     21 O3           1.7870     3.0090     1.2830 oh         1 M2T      -0.585800
     22 HG           5.2440    -3.0070    -1.7800 h1         1 M2T       0.064533
     23 HGA          4.9550    -1.5720    -2.7870 h1         1 M2T       0.064533
     24 HGB          6.3150    -1.5890    -1.6390 h1         1 M2T       0.064533
     25 HE           4.4450    -1.7750     1.7700 h1         1 M2T       0.064533
     26 HEA          5.4660    -2.6710     0.6040 h1         1 M2T       0.064533
     27 HEB          5.8510    -0.9880     1.0200 h1         1 M2T       0.064533
     28 H5           2.3370    -0.6360     1.5110 h1         1 M2T       0.046700
     29 H5'A         3.6170     0.5980     1.4930 h1         1 M2T       0.046700
     30 H4           2.7280     1.5950    -0.5490 h1         1 M2T       0.054700
     31 H1          -0.3860     0.8710    -1.9130 h2         1 M2T       0.118700
     32 H2          -5.0480     1.3570    -1.2620 h5         1 M2T       0.045100
     33 HN6         -5.8350    -2.2590     1.2590 hn         1 M2T       0.449800
     34 HN6A        -4.3010    -2.9000     1.7140 hn         1 M2T       0.449800
     35 H8           0.2810    -1.5380     0.7680 h5         1 M2T       0.075800
     36 H6          -0.9400     2.4010     0.2880 h1         1 M2T       0.077700
     37 HO2          0.9580     3.7360    -0.6520 ho         1 M2T       0.424000
     38 H3           0.7020     1.2960     1.7010 h1         1 M2T       0.058700
     39 HO3          1.2650     3.4300     1.9730 ho         1 M2T       0.413000
     40 HSD          4.3720     0.0470    -0.9880 hs         1 M2T       0.385800
@<TRIPOS>BOND
     1     1     2 1   
     2     1    22 1   
     3     1    23 1   
     4     1    24 1   
     5     2     3 1   
     6     2     4 1   
     7     2    40 1   
     8     3    25 1   
     9     3    26 1   
    10     3    27 1   
    11     4     5 1   
    12     4    28 1   
    13     4    29 1   
    14     5     6 1   
    15     5    20 1   
    16     5    30 1   
    17     6     7 1   
    18     7     8 1   
    19     7    18 1   
    20     7    31 1   
    21     8     9 1   
    22     8    17 1   
    23     9    10 ar  
    24     9    15 ar  
    25    10    11 ar  
    26    11    12 ar  
    27    11    32 1   
    28    12    13 ar  
    29    13    14 1   
    30    13    15 ar  
    31    14    33 1   
    32    14    34 1   
    33    15    16 1   
    34    16    17 2   
    35    17    35 1   
    36    18    19 1   
    37    18    20 1   
    38    18    36 1   
    39    19    37 1   
    40    20    21 1   
    41    20    38 1   
    42    21    39 1   
@<TRIPOS>SUBSTRUCTURE
     1 M2T         1 TEMP              0 ****  ****    0 ROOT
