@<TRIPOS>MOLECULE
M2U
   30    31     1     0     0
SMALL
bcc


@<TRIPOS>ATOM
      1 N1          27.3510    29.0860    27.3500 n7         1 M2U      -0.800100
      2 N3          25.8920    29.0640    22.9810 na         1 M2U       0.179300
      3 C4          24.8570    28.8340    22.0360 ca         1 M2U      -0.009200
      4 C5          23.5310    29.0230    22.3990 ca         1 M2U      -0.111000
      5 C6          22.5320    28.7880    21.4650 ca         1 M2U      -0.121000
      6 C7          22.8600    28.3840    20.1780 ca         1 M2U      -0.115000
      7 C8          24.1920    28.2140    19.8220 ca         1 M2U      -0.121000
      8 C10         26.1620    28.3510    24.0920 cc         1 M2U       0.047400
      9 C1          27.1480    30.5270    27.4240 c3         1 M2U       0.177100
     10 S1          28.1740    28.4890    26.0540 sy         1 M2U       1.337200
     11 O1          28.1480    27.0430    26.1900 o          1 M2U      -0.612300
     12 O2          29.4440    29.1940    25.9990 o          1 M2U      -0.612300
     13 C2          27.3020    28.9380    24.6170 cd         1 M2U      -0.528800
     14 C3          27.6270    29.9920    23.7440 cd         1 M2U       0.406200
     15 N2          26.7700    30.0540    22.7560 nc         1 M2U      -0.507800
     16 C9          25.1960    28.4340    20.7520 ca         1 M2U      -0.111000
     17 H4          26.5100    28.5490    27.5340 hn         1 M2U       0.414800
     18 H6          23.2810    29.3570    23.3980 ha         1 M2U       0.148000
     19 H7          21.4960    28.9290    21.7440 ha         1 M2U       0.141000
     20 H8          22.0790    28.2060    19.4510 ha         1 M2U       0.139000
     21 H9          24.4510    27.9010    18.8190 ha         1 M2U       0.141000
     22 H2          26.5920    30.7350    28.3340 h1         1 M2U       0.050367
     23 H3          28.1040    31.0400    27.4890 h1         1 M2U       0.050367
     24 H1          26.5840    30.9300    26.5770 h1         1 M2U       0.050367
     25 H5          28.4480    30.6890    23.8150 h4         1 M2U       0.062100
     26 H10         26.2360    28.2930    20.4860 ha         1 M2U       0.148000
     27 H13         25.7620    26.2630    24.0410 hc         1 M2U       0.067367
     28 H11         25.4600    27.0200    25.6010 hc         1 M2U       0.067367
     29 H12         24.3290    27.2560    24.2760 hc         1 M2U       0.067367
     30 C11         25.3830    27.1630    24.5260 c3         1 M2U      -0.047800
@<TRIPOS>BOND
     1     1     9 1   
     2     1    10 1   
     3     1    17 1   
     4     2     3 1   
     5     2     8 1   
     6     2    15 1   
     7     3     4 ar  
     8     3    16 ar  
     9     4     5 ar  
    10     4    18 1   
    11     5     6 ar  
    12     5    19 1   
    13     6     7 ar  
    14     6    20 1   
    15     7    16 ar  
    16     7    21 1   
    17     8    13 2   
    18     8    30 1   
    19     9    22 1   
    20     9    23 1   
    21     9    24 1   
    22    10    11 2   
    23    10    12 2   
    24    10    13 1   
    25    13    14 1   
    26    14    15 2   
    27    14    25 1   
    28    16    26 1   
    29    27    30 1   
    30    28    30 1   
    31    29    30 1   
@<TRIPOS>SUBSTRUCTURE
     1 M2U         1 TEMP              0 ****  ****    0 ROOT
