@<TRIPOS>MOLECULE
M2U
   30    31     1     0     0
SMALL
No Charge or Current Charge


@<TRIPOS>ATOM
      1 N1          26.9690    29.4600    26.8870 n7         1 M2U      -0.855300
      2 N3          25.9420    29.0410    22.7490 na         1 M2U       0.230000
      3 C4          24.8670    28.7470    21.9090 ca         1 M2U      -0.009200
      4 C5          23.5420    28.9500    22.3490 ca         1 M2U      -0.093000
      5 C6          22.4610    28.6520    21.5010 ca         1 M2U      -0.103000
      6 C7          22.6970    28.1520    20.2090 ca         1 M2U      -0.097000
      7 C8          24.0140    27.9530    19.7630 ca         1 M2U      -0.103000
      8 C10         26.1870    28.3990    23.9620 cc         1 M2U      -0.003300
      9 C1          27.3760    30.1900    28.1010 c3         1 M2U       0.177100
     10 S1          28.1600    28.8140    25.9240 sy         1 M2U       1.195600
     11 O1          28.2200    27.3840    26.2350 o          1 M2U      -0.541500
     12 O2          29.3160    29.7100    25.9820 o          1 M2U      -0.541500
     13 C2          27.2830    29.0840    24.4260 cd         1 M2U      -0.463500
     14 C3          27.6090    30.0640    23.4630 cd         1 M2U       0.340900
     15 N2          26.7940    30.0670    22.4240 nc         1 M2U      -0.507800
     16 C9          25.0970    28.2510    20.6100 ca         1 M2U      -0.093000
     17 H4          26.5050    30.0840    26.2310 hn         1 M2U       0.470000
     18 H6          23.3520    29.3400    23.3470 ha         1 M2U       0.130000
     19 H7          21.4400    28.8080    21.8460 ha         1 M2U       0.123000
     20 H8          21.8590    27.9220    19.5530 ha         1 M2U       0.121000
     21 H9          24.1970    27.5680    18.7620 ha         1 M2U       0.123000
     22 H2          26.4950    30.5660    28.6380 h1         1 M2U       0.050367
     23 H3          27.9320    29.5360    28.7850 h1         1 M2U       0.050367
     24 H1          28.0120    31.0530    27.8580 h1         1 M2U       0.050367
     25 H5          28.4190    30.7830    23.4960 h4         1 M2U       0.062100
     26 H10         26.1150    28.0950    20.2590 ha         1 M2U       0.130000
     27 H13         26.0830    26.4370    24.8590 hc         1 M2U       0.067367
     28 H11         24.8470    27.5700    25.4350 hc         1 M2U       0.067367
     29 H12         24.7000    26.8200    23.8360 hc         1 M2U       0.067367
     30 C11         25.4110    27.2460    24.5520 c3         1 M2U      -0.047800
@<TRIPOS>BOND
     1     1     9 1   
     2     1    10 1   
     3     1    17 1   
     4     2     3 1   
     5     2     8 1   
     6     2    15 1   
     7     3     4 ar  
     8     3    16 ar  
     9     4     5 ar  
    10     4    18 1   
    11     5     6 ar  
    12     5    19 1   
    13     6     7 ar  
    14     6    20 1   
    15     7    16 ar  
    16     7    21 1   
    17     8    13 2   
    18     8    30 1   
    19     9    22 1   
    20     9    23 1   
    21     9    24 1   
    22    10    11 2   
    23    10    12 2   
    24    10    13 1   
    25    13    14 1   
    26    14    15 2   
    27    14    25 1   
    28    16    26 1   
    29    27    30 1   
    30    28    30 1   
    31    29    30 1   
@<TRIPOS>SUBSTRUCTURE
     1 M2U         1 TEMP              0 ****  ****    0 ROOT
