@<TRIPOS>MOLECULE
M2V
   47    50     1     0     0
SMALL
No Charge or Current Charge


@<TRIPOS>ATOM
      1 C4           1.6340     0.3050     0.9890 ca         1 M2V       0.419900
      2 C5           0.2810    -0.0580     1.0410 ca         1 M2V      -0.288800
      3 C6          -0.1630    -0.7820     2.1270 ca         1 M2V       0.222300
      4 N1           0.6490    -1.1470     3.1340 nb         1 M2V      -0.279000
      5 N3           2.4710    -0.0460     1.9870 nb         1 M2V      -0.262000
      6 CAN         -4.4670    -0.1570     0.3000 ca         1 M2V      -0.119000
      7 CAO         -5.6440    -0.0210    -0.4540 ca         1 M2V       0.129000
      8 ClAZ        -7.1880     0.0650     0.3960 cl         1 M2V      -0.248000
      9 CAP         -5.5850     0.0440    -1.8630 ca         1 M2V      -0.106300
     10 CAS         -6.8520     0.1900    -2.7000 c3         1 M2V      -0.032800
     11 CAQ         -4.3310    -0.0330    -2.4970 ca         1 M2V      -0.099000
     12 CAR         -3.1550    -0.1680    -1.7390 ca         1 M2V      -0.106000
     13 CAM         -3.2110    -0.2250    -0.3310 ca         1 M2V       0.048200
     14 CAJ         -1.9970    -0.3720     0.4780 cc         1 M2V      -0.112600
     15 SAK         -1.9000    -1.1900     2.0630 ss         1 M2V      -0.232900
     16 CAI         -0.7880     0.1760     0.0900 cd         1 M2V      -0.050200
     17 C2           1.9370    -0.7560     3.0070 ca         1 M2V       0.181900
     18 NAA          2.1630     1.0100    -0.0900 nu         1 M2V      -0.771100
     19 CAB          3.5630     0.9120    -0.6450 c3         1 M2V      -0.071500
     20 PBA          4.2770     2.3980    -1.6000 p5         1 M2V       1.263500
     21 OBC          5.6690     2.0950    -2.0480 o          1 M2V      -0.906833
     22 OBD          3.4080     2.6710    -2.7840 o          1 M2V      -0.906833
     23 OBB          4.2910     3.5950    -0.7070 o          1 M2V      -0.906833
     24 CAL          3.7020    -0.3850    -1.4940 c3         1 M2V      -0.035100
     25 CAT          3.4170    -1.6720    -0.7210 ca         1 M2V      -0.029300
     26 CAU          4.3720    -2.1840     0.1790 ca         1 M2V      -0.113000
     27 CAV          4.1040    -3.3540     0.9100 ca         1 M2V      -0.121000
     28 CAW          2.8780    -4.0210     0.7450 ca         1 M2V      -0.149000
     29 CAX          1.9230    -3.5190    -0.1540 ca         1 M2V      -0.121000
     30 CAY          2.1930    -2.3510    -0.8880 ca         1 M2V      -0.113000
     31 H1          -4.5350    -0.2020     1.3830 ha         1 M2V       0.132000
     32 H2          -7.3880     1.1120    -2.4450 hc         1 M2V       0.035033
     33 H3          -6.6290     0.2260    -3.7730 hc         1 M2V       0.035033
     34 H4          -7.5320    -0.6540    -2.5350 hc         1 M2V       0.035033
     35 H5          -4.2630     0.0080    -3.5820 ha         1 M2V       0.106000
     36 H6          -2.2020    -0.2440    -2.2550 ha         1 M2V       0.132000
     37 H7          -0.6640     0.7400    -0.8310 ha         1 M2V       0.215000
     38 H8           2.6150    -1.0410     3.8100 h5         1 M2V       0.018100
     39 H9           1.4720     1.4780    -0.6760 hn         1 M2V       0.530000
     40 H10          4.2720     0.8470     0.1900 h1         1 M2V       0.067700
     41 H13          3.0430    -0.3120    -2.3670 hc         1 M2V       0.067700
     42 H14          4.7200    -0.4390    -1.8980 hc         1 M2V       0.067700
     43 H15          5.3190    -1.6680     0.3190 ha         1 M2V       0.111000
     44 H16          4.8430    -3.7410     1.6070 ha         1 M2V       0.086000
     45 H17          2.6690    -4.9230     1.3130 ha         1 M2V       0.081000
     46 H18          0.9730    -4.0320    -0.2810 ha         1 M2V       0.086000
     47 H19          1.4440    -1.9630    -1.5740 ha         1 M2V       0.111000
@<TRIPOS>BOND
     1     1     2 ar  
     2     1     5 ar  
     3     1    18 1   
     4     2     3 ar  
     5     2    16 1   
     6     3     4 ar  
     7     3    15 1   
     8     4    17 ar  
     9     5    17 ar  
    10     6     7 ar  
    11     6    13 ar  
    12     6    31 1   
    13     7     8 1   
    14     7     9 ar  
    15     9    10 1   
    16     9    11 ar  
    17    10    32 1   
    18    10    33 1   
    19    10    34 1   
    20    11    12 ar  
    21    11    35 1   
    22    12    13 ar  
    23    12    36 1   
    24    13    14 1   
    25    14    15 1   
    26    14    16 2   
    27    16    37 1   
    28    17    38 1   
    29    18    19 1   
    30    18    39 1   
    31    19    20 1   
    32    19    24 1   
    33    19    40 1   
    34    20    21 1   
    35    20    22 1   
    36    20    23 1   
    37    24    25 1   
    38    24    41 1   
    39    24    42 1   
    40    25    26 ar  
    41    25    30 ar  
    42    26    27 ar  
    43    26    43 1   
    44    27    28 ar  
    45    27    44 1   
    46    28    29 ar  
    47    28    45 1   
    48    29    30 ar  
    49    29    46 1   
    50    30    47 1   
@<TRIPOS>SUBSTRUCTURE
     1 M2V         1 TEMP              0 ****  ****    0 ROOT
