@<TRIPOS>MOLECULE
M2V
   47    50     1     0     0
SMALL
abcg2


@<TRIPOS>ATOM
      1 C4           1.5940     0.0670     0.7360 ca         1 M2V       0.419900
      2 C5           0.1830    -0.1330     0.7790 ca         1 M2V      -0.288800
      3 C6          -0.3040    -0.7100     1.9440 ca         1 M2V       0.222300
      4 N1           0.4260    -1.0750     2.9970 nb         1 M2V      -0.279000
      5 N3           2.3250    -0.2700     1.8040 nb         1 M2V      -0.262000
      6 CAN         -4.5550     0.0220     0.2640 ca         1 M2V      -0.119000
      7 CAO         -5.7480     0.1670    -0.4220 ca         1 M2V       0.129000
      8 CLAZ        -7.2130     0.2730     0.5030 cl         1 M2V      -0.248000
      9 CAP         -5.8120     0.2410    -1.8110 ca         1 M2V      -0.106300
     10 CAS         -7.1040     0.4010    -2.5470 c3         1 M2V      -0.032800
     11 CAQ         -4.5980     0.1550    -2.4900 ca         1 M2V      -0.099000
     12 CAR         -3.3930    -0.0000    -1.8290 ca         1 M2V      -0.106000
     13 CAM         -3.3510    -0.0650    -0.4350 ca         1 M2V       0.048200
     14 CAJ         -2.0780    -0.2100     0.2650 cc         1 M2V      -0.112600
     15 SAK         -2.0220    -0.9140     1.8630 ss         1 M2V      -0.232900
     16 CAI         -0.8390     0.1460    -0.1710 cd         1 M2V      -0.050200
     17 C2           1.7150    -0.8170     2.8430 ca         1 M2V       0.181900
     18 NAA          2.1800     0.5880    -0.3340 nu         1 M2V      -0.771100
     19 CAB          3.6000     0.7530    -0.5670 c3         1 M2V      -0.071500
     20 PBA          3.7980     2.3460    -1.5510 p5         1 M2V       1.263500
     21 OBC          5.2330     2.3160    -2.0800 o          1 M2V      -0.906833
     22 OBD          2.7170     2.1880    -2.6340 o          1 M2V      -0.906833
     23 OBB          3.5160     3.4710    -0.5540 o          1 M2V      -0.906833
     24 CAL          4.1640    -0.4630    -1.3200 c3         1 M2V      -0.035100
     25 CAT          3.8930    -1.7560    -0.6110 ca         1 M2V      -0.029300
     26 CAU          4.7750    -2.2400     0.3530 ca         1 M2V      -0.113000
     27 CAV          4.4820    -3.3820     1.0830 ca         1 M2V      -0.121000
     28 CAW          3.2920    -4.0640     0.8630 ca         1 M2V      -0.149000
     29 CAX          2.4090    -3.6010    -0.1020 ca         1 M2V      -0.121000
     30 CAY          2.7120    -2.4610    -0.8350 ca         1 M2V      -0.113000
     31 H1          -4.5690    -0.0050     1.3470 ha         1 M2V       0.132000
     32 H2          -7.6230     1.3140    -2.2510 hc         1 M2V       0.035033
     33 H3          -6.9320     0.4480    -3.6210 hc         1 M2V       0.035033
     34 H4          -7.7830    -0.4310    -2.3530 hc         1 M2V       0.035033
     35 H5          -4.6020     0.2000    -3.5720 ha         1 M2V       0.106000
     36 H6          -2.4820    -0.0890    -2.4060 ha         1 M2V       0.132000
     37 H7          -0.6700     0.6150    -1.1310 ha         1 M2V       0.215000
     38 H8           2.3550    -1.0850     3.6780 h5         1 M2V       0.018100
     39 H9           1.6120     0.8700    -1.1210 hn         1 M2V       0.530000
     40 H10          4.1020     0.8320     0.3990 h1         1 M2V       0.067700
     41 H13          3.7290    -0.4820    -2.3230 hc         1 M2V       0.067700
     42 H14          5.2370    -0.3090    -1.4420 hc         1 M2V       0.067700
     43 H15          5.7010    -1.7070     0.5410 ha         1 M2V       0.111000
     44 H16          5.1840    -3.7420     1.8260 ha         1 M2V       0.086000
     45 H17          3.0590    -4.9540     1.4340 ha         1 M2V       0.081000
     46 H18          1.4800    -4.1280    -0.2860 ha         1 M2V       0.086000
     47 H19          2.0130    -2.1070    -1.5840 ha         1 M2V       0.111000
@<TRIPOS>BOND
     1     1     2 ar  
     2     1     5 ar  
     3     1    18 1   
     4     2     3 ar  
     5     2    16 1   
     6     3     4 ar  
     7     3    15 1   
     8     4    17 ar  
     9     5    17 ar  
    10     6     7 ar  
    11     6    13 ar  
    12     6    31 1   
    13     7     8 1   
    14     7     9 ar  
    15     9    10 1   
    16     9    11 ar  
    17    10    32 1   
    18    10    33 1   
    19    10    34 1   
    20    11    12 ar  
    21    11    35 1   
    22    12    13 ar  
    23    12    36 1   
    24    13    14 1   
    25    14    15 1   
    26    14    16 2   
    27    16    37 1   
    28    17    38 1   
    29    18    19 1   
    30    18    39 1   
    31    19    20 1   
    32    19    24 1   
    33    19    40 1   
    34    20    21 1   
    35    20    22 1   
    36    20    23 1   
    37    24    25 1   
    38    24    41 1   
    39    24    42 1   
    40    25    26 ar  
    41    25    30 ar  
    42    26    27 ar  
    43    26    43 1   
    44    27    28 ar  
    45    27    44 1   
    46    28    29 ar  
    47    28    45 1   
    48    29    30 ar  
    49    29    46 1   
    50    30    47 1   
@<TRIPOS>SUBSTRUCTURE
     1 M2V         1 TEMP              0 ****  ****    0 ROOT
