@<TRIPOS>MOLECULE
M2W
   48    47     1     0     0
SMALL
abcg2


@<TRIPOS>ATOM
      1 C8           1.3710     0.7190     0.0420 c          1 M2W       0.611100
      2 O27          1.2990     1.2410     1.1440 o          1 M2W      -0.611100
      3 O22          8.3170    -0.9800    -0.3290 o          1 M2W      -0.742000
      4 C9           2.6440     0.1140    -0.5090 c3         1 M2W      -0.154400
      5 C20          7.3190    -1.5580     0.1470 c          1 M2W       0.690000
      6 C16          6.2270    -0.6790     0.8050 c3         1 M2W       0.015500
      7 C13          5.0180    -0.6120    -0.1320 c3         1 M2W      -0.054400
      8 C10          3.7980     0.0640     0.4790 c3         1 M2W      -0.062400
      9 N19          6.6470     0.6650     1.1730 n8         1 M2W      -0.993200
     10 N7           0.3190     0.6330    -0.7970 ns         1 M2W      -0.499900
     11 C3          -0.9960     1.1350    -0.5060 c3         1 M2W       0.040700
     12 C1          -2.0310     0.1400    -1.0360 c          1 M2W       0.593100
     13 O6          -1.8150    -0.4920    -2.0620 o          1 M2W      -0.635100
     14 C35         -1.2720     2.4870    -1.1700 c3         1 M2W       0.062600
     15 S37         -0.0780     3.7290    -0.5750 sh         1 M2W      -0.416800
     16 N2          -3.1730     0.0990    -0.3510 ns         1 M2W      -0.443900
     17 C4          -4.2540    -0.8020    -0.6730 c3         1 M2W      -0.041300
     18 C23         -4.0740    -2.2080    -0.0350 c          1 M2W       0.725000
     19 O25         -4.9860    -3.0170    -0.2950 o          1 M2W      -0.716000
     20 C5          -5.5910    -0.1820    -0.2800 c3         1 M2W       0.166300
     21 O41         -5.5620    -0.0330     1.1270 os         1 M2W      -0.439000
     22 C46         -5.8590     1.1300    -1.0040 c3         1 M2W      -0.120100
     23 C42         -6.8070     0.2430     1.7140 c3         1 M2W       0.157900
     24 O26         -3.0540    -2.4070     0.6430 o          1 M2W      -0.716000
     25 H91C         2.4190    -0.8930    -0.8770 hc         1 M2W       0.051700
     26 H92C         2.9370     0.6890    -1.3950 hc         1 M2W       0.051700
     27 H16          5.9020    -1.1860     1.7220 h1         1 M2W       0.040700
     28 H131         5.3080    -0.0840    -1.0500 hc         1 M2W       0.034700
     29 H132         4.7550    -1.6290    -0.4350 hc         1 M2W       0.034700
     30 H101         4.0620     1.0710     0.8030 hc         1 M2W       0.052200
     31 H102         3.4970    -0.4840     1.3770 hc         1 M2W       0.052200
     32 H191         7.3750     0.5970     1.8740 hn         1 M2W       0.375500
     33 H192         7.1110     1.0750     0.3700 hn         1 M2W       0.375500
     34 H7           0.4440     0.1880    -1.6940 hn         1 M2W       0.328500
     35 H3          -1.0940     1.2410     0.5770 h1         1 M2W       0.098700
     36 H351        -1.1880     2.3910    -2.2530 h1         1 M2W       0.059200
     37 H352        -2.2840     2.8120    -0.9290 h1         1 M2W       0.059200
     38 H37         -0.5210     4.7360    -1.3360 hs         1 M2W       0.167800
     39 H2          -3.1940     0.5350     0.5580 hn         1 M2W       0.314500
     40 H4          -4.2660    -0.9320    -1.7580 h1         1 M2W       0.065700
     41 H5          -6.3700    -0.9040    -0.5590 h1         1 M2W       0.061700
     42 H461        -5.1130     1.8870    -0.7600 hc         1 M2W       0.024367
     43 H462        -5.8360     0.9700    -2.0830 hc         1 M2W       0.024367
     44 H463        -6.8430     1.5340    -0.7610 hc         1 M2W       0.024367
     45 H421        -6.6860     0.1800     2.7950 h1         1 M2W       0.010367
     46 H422        -7.1820     1.2440     1.4750 h1         1 M2W       0.010367
     47 H423        -7.5710    -0.4830     1.4110 h1         1 M2W       0.010367
     48 O21          7.0930    -2.7870     0.1210 o          1 M2W      -0.742000
@<TRIPOS>BOND
     1     1     2 2   
     2     1     4 1   
     3     1    10 1   
     4     3     5 1   
     5     4     8 1   
     6     4    25 1   
     7     4    26 1   
     8     5     6 1   
     9     5    48 1   
    10     6     7 1   
    11     6     9 1   
    12     6    27 1   
    13     7     8 1   
    14     7    28 1   
    15     7    29 1   
    16     8    30 1   
    17     8    31 1   
    18     9    32 1   
    19     9    33 1   
    20    10    11 1   
    21    10    34 1   
    22    11    12 1   
    23    11    14 1   
    24    11    35 1   
    25    12    13 2   
    26    12    16 1   
    27    14    15 1   
    28    14    36 1   
    29    14    37 1   
    30    15    38 1   
    31    16    17 1   
    32    16    39 1   
    33    17    18 1   
    34    17    20 1   
    35    17    40 1   
    36    18    19 1   
    37    18    24 1   
    38    20    21 1   
    39    20    22 1   
    40    20    41 1   
    41    21    23 1   
    42    22    42 1   
    43    22    43 1   
    44    22    44 1   
    45    23    45 1   
    46    23    46 1   
    47    23    47 1   
@<TRIPOS>SUBSTRUCTURE
     1 M2W         1 TEMP              0 ****  ****    0 ROOT
