@<TRIPOS>MOLECULE
M2W
   48    47     1     0     0
SMALL
No Charge or Current Charge


@<TRIPOS>ATOM
      1 C8           1.5790     1.6120     0.3400 c          1 M2W       0.611100
      2 O27          1.6120     2.1390     1.4430 o          1 M2W      -0.611100
      3 O22          7.8720    -1.0680    -1.4330 o          1 M2W      -0.742000
      4 C9           2.8430     1.3600    -0.4900 c3         1 M2W      -0.154400
      5 C20          6.8530    -1.7410    -1.3370 c          1 M2W       0.690000
      6 C16          5.7740    -1.3290    -0.2510 c3         1 M2W       0.015500
      7 C13          4.9510    -0.1080    -0.7470 c3         1 M2W      -0.054400
      8 C10          3.6670     0.1760     0.0710 c3         1 M2W      -0.062400
      9 N19          6.2980    -1.0950     1.1450 n8         1 M2W      -0.993200
     10 N7           0.4040     1.2180    -0.2580 ns         1 M2W      -0.499900
     11 C3          -0.9540     1.4040     0.3150 c3         1 M2W       0.040700
     12 C1          -1.8010     0.1120     0.1550 c          1 M2W       0.593100
     13 O6          -1.4760    -0.8150    -0.5800 o          1 M2W      -0.635100
     14 C35         -1.6840     2.6070    -0.3350 c3         1 M2W       0.062600
     15 S37         -0.7610     4.2170    -0.2750 sh         1 M2W      -0.416800
     16 N2          -2.9560     0.0780     0.9090 ns         1 M2W      -0.443900
     17 C4          -3.9900    -0.9930     0.8650 c3         1 M2W      -0.041300
     18 C23         -4.5770    -1.2810     2.2780 c          1 M2W       0.725000
     19 O25         -5.0340    -2.3960     2.4860 o          1 M2W      -0.716000
     20 C5          -5.1350    -0.6900    -0.1380 c3         1 M2W       0.166300
     21 O41         -5.6710     0.6130     0.1870 os         1 M2W      -0.439000
     22 C46         -4.6690    -0.6960    -1.6150 c3         1 M2W      -0.120100
     23 C42         -6.8940     0.9840    -0.4750 c3         1 M2W       0.157900
     24 O26         -4.4560    -0.4360     3.1570 o          1 M2W      -0.716000
     25 H91C         2.5700     1.1320    -1.5280 hc         1 M2W       0.051700
     26 H92C         3.4670     2.2610    -0.4610 hc         1 M2W       0.051700
     27 H16          5.0770    -2.1770    -0.1840 h1         1 M2W       0.040700
     28 H131         5.5890     0.7850    -0.7510 hc         1 M2W       0.034700
     29 H132         4.6620    -0.2880    -1.7900 hc         1 M2W       0.034700
     30 H101         3.9350     0.3910     1.1130 hc         1 M2W       0.052200
     31 H102         3.0400    -0.7250     0.0820 hc         1 M2W       0.052200
     32 H191         6.7890    -1.9400     1.4620 hn         1 M2W       0.375500
     33 H192         7.0480    -0.3960     1.0920 hn         1 M2W       0.375500
     34 H7           0.4840     0.7560    -1.1560 hn         1 M2W       0.328500
     35 H3          -0.8660     1.5920     1.3930 h1         1 M2W       0.098700
     36 H351        -1.8820     2.3750    -1.3900 h1         1 M2W       0.059200
     37 H352        -2.6540     2.7550     0.1590 h1         1 M2W       0.059200
     38 H37         -1.6970     4.9510    -0.9230 hs         1 M2W       0.167800
     39 H2          -3.1370     0.8700     1.5150 hn         1 M2W       0.314500
     40 H4          -3.5050    -1.9250     0.5510 h1         1 M2W       0.065700
     41 H5          -5.9060    -1.4650    -0.0180 h1         1 M2W       0.061700
     42 H461        -4.0330     0.1710    -1.8340 hc         1 M2W       0.024367
     43 H462        -4.0950    -1.6050    -1.8300 hc         1 M2W       0.024367
     44 H463        -5.5250    -0.6820    -2.3000 hc         1 M2W       0.024367
     45 H421        -7.2660     1.9350    -0.0740 h1         1 M2W       0.010367
     46 H422        -6.7400     1.1140    -1.5540 h1         1 M2W       0.010367
     47 H423        -7.6680     0.2220    -0.3200 h1         1 M2W       0.010367
     48 O21          6.6820    -2.7810    -1.9580 o          1 M2W      -0.742000
@<TRIPOS>BOND
     1     1     2 2   
     2     1     4 1   
     3     1    10 1   
     4     3     5 1   
     5     4     8 1   
     6     4    25 1   
     7     4    26 1   
     8     5     6 1   
     9     5    48 1   
    10     6     7 1   
    11     6     9 1   
    12     6    27 1   
    13     7     8 1   
    14     7    28 1   
    15     7    29 1   
    16     8    30 1   
    17     8    31 1   
    18     9    32 1   
    19     9    33 1   
    20    10    11 1   
    21    10    34 1   
    22    11    12 1   
    23    11    14 1   
    24    11    35 1   
    25    12    13 2   
    26    12    16 1   
    27    14    15 1   
    28    14    36 1   
    29    14    37 1   
    30    15    38 1   
    31    16    17 1   
    32    16    39 1   
    33    17    18 1   
    34    17    20 1   
    35    17    40 1   
    36    18    19 1   
    37    18    24 1   
    38    20    21 1   
    39    20    22 1   
    40    20    41 1   
    41    21    23 1   
    42    22    42 1   
    43    22    43 1   
    44    22    44 1   
    45    23    45 1   
    46    23    46 1   
    47    23    47 1   
@<TRIPOS>SUBSTRUCTURE
     1 M2W         1 TEMP              0 ****  ****    0 ROOT
