@<TRIPOS>MOLECULE
M2X
   37    38     1     0     0
SMALL
No Charge or Current Charge


@<TRIPOS>ATOM
      1 N1           7.8110    -1.0300    20.4040 ns         1 M2X      -0.170000
      2 C4          11.8870    -0.5090    22.7620 ca         1 M2X      -0.060900
      3 C5          10.9580    -1.4580    22.3080 ca         1 M2X      -0.044000
      4 C6           9.6310    -1.4450    22.7890 ca         1 M2X      -0.181300
      5 C7           8.6350    -2.4780    22.2530 c3         1 M2X       0.147800
      6 C8           7.4320    -1.7780    21.5100 c          1 M2X       0.617100
      7 C10          7.0500    -0.4380    18.1660 ca         1 M2X       0.321900
      8 C13          6.2520     0.8770    20.0470 ca         1 M2X      -0.018300
      9 N            8.2980    -3.4400    23.3510 n8         1 M2X      -0.969200
     10 N2           6.3400     0.2870    17.2710 nb         1 M2X      -0.657000
     11 C11          5.5820     1.2990    17.7470 ca         1 M2X       0.331900
     12 C1           9.2450    -0.4660    23.7360 ca         1 M2X       0.167100
     13 O1           6.2580    -1.8950    21.8600 o          1 M2X      -0.551100
     14 C2          10.1880     0.4850    24.1850 ca         1 M2X      -0.201000
     15 C9           7.0290    -0.2000    19.5560 ca         1 M2X      -0.096000
     16 C12          5.5160     1.6270    19.1110 ca         1 M2X      -0.161000
     17 C            7.4490     0.5040    25.1350 c3         1 M2X       0.145900
     18 O            7.9430    -0.4720    24.2000 os         1 M2X      -0.338100
     19 Br          13.6800    -0.5390    22.0970 br         1 M2X      -0.089100
     20 C3          11.5050     0.4630    23.6980 ca         1 M2X      -0.034000
     21 H1           8.7980    -1.0620    20.1800 hn         1 M2X       0.155000
     22 H2          11.2720    -2.2030    21.5790 ha         1 M2X       0.131000
     23 H3           9.1420    -3.0610    21.4710 h1         1 M2X       0.070700
     24 H4           7.6490    -1.2500    17.7540 h4         1 M2X       0.017100
     25 H5           9.1690    -3.7620    23.7860 hn         1 M2X       0.410000
     26 H6           7.8420    -2.9050    24.1010 hn         1 M2X       0.410000
     27 H8           5.0200     1.8720    17.0110 h4         1 M2X       0.020100
     28 H9           9.9210     1.2480    24.9110 ha         1 M2X       0.126000
     29 H10          4.9020     2.4650    19.4280 ha         1 M2X       0.122000
     30 H11          5.5090     0.6770    22.0830 hc         1 M2X       0.051700
     31 H12          7.2130     1.1660    21.9820 hc         1 M2X       0.051700
     32 H13          5.9380     2.3310    21.6380 hc         1 M2X       0.051700
     33 H14          6.3910     0.3160    25.3550 h1         1 M2X       0.047033
     34 H15          8.0050     0.4570    26.0790 h1         1 M2X       0.047033
     35 H16          7.5350     1.5170    24.7220 h1         1 M2X       0.047033
     36 H17         12.2280     1.1980    24.0460 ha         1 M2X       0.132000
     37 C14          6.2270     1.2800    21.5180 c3         1 M2X      -0.051800
@<TRIPOS>BOND
     1     1     6 1   
     2     1    15 1   
     3     1    21 1   
     4     2     3 ar  
     5     2    19 1   
     6     2    20 ar  
     7     3     4 ar  
     8     3    22 1   
     9     4     5 1   
    10     4    12 ar  
    11     5     6 1   
    12     5     9 1   
    13     5    23 1   
    14     6    13 2   
    15     7    10 ar  
    16     7    15 ar  
    17     7    24 1   
    18     8    15 ar  
    19     8    16 ar  
    20     8    37 1   
    21     9    25 1   
    22     9    26 1   
    23    10    11 ar  
    24    11    16 ar  
    25    11    27 1   
    26    12    14 ar  
    27    12    18 1   
    28    14    20 ar  
    29    14    28 1   
    30    16    29 1   
    31    17    18 1   
    32    17    33 1   
    33    17    34 1   
    34    17    35 1   
    35    20    36 1   
    36    30    37 1   
    37    31    37 1   
    38    32    37 1   
@<TRIPOS>SUBSTRUCTURE
     1 M2X         1 TEMP              0 ****  ****    0 ROOT
