@<TRIPOS>MOLECULE
M2X
   37    38     1     0     0
SMALL
abcg2


@<TRIPOS>ATOM
      1 N1           7.9300    -0.7530    20.5780 ns         1 M2X      -0.170000
      2 C4          11.9520    -0.6190    22.8470 ca         1 M2X      -0.060900
      3 C5          10.9990    -1.4930    22.3370 ca         1 M2X      -0.044000
      4 C6           9.6770    -1.4070    22.7420 ca         1 M2X      -0.181300
      5 C7           8.6470    -2.3880    22.2120 c3         1 M2X       0.147800
      6 C8           7.5030    -1.6690    21.4850 c          1 M2X       0.617100
      7 C10          7.1330    -0.3900    18.3320 ca         1 M2X       0.321900
      8 C13          6.1640     0.8910    20.1190 ca         1 M2X      -0.018300
      9 N            8.1200    -3.3240    23.1780 n8         1 M2X      -0.969200
     10 N2           6.3920     0.1950    17.4030 nb         1 M2X      -0.657000
     11 C11          5.5210     1.1110    17.8110 ca         1 M2X       0.331900
     12 C1           9.3160    -0.4300    23.6840 ca         1 M2X       0.167100
     13 O1           6.3310    -1.9190    21.6700 o          1 M2X      -0.551100
     14 C2          10.2750     0.4370    24.1930 ca         1 M2X      -0.201000
     15 C9           7.0620    -0.0880    19.6870 ca         1 M2X      -0.096000
     16 C12          5.3770     1.4840    19.1360 ca         1 M2X      -0.161000
     17 C            7.5680     0.5630    24.9540 c3         1 M2X       0.145900
     18 O            8.0190    -0.4040    24.0240 os         1 M2X      -0.338100
     19 BR          13.7450    -0.7470    22.2650 br         1 M2X      -0.089100
     20 C3          11.5980     0.3420    23.7740 ca         1 M2X      -0.034000
     21 H1           8.9180    -0.7030    20.3770 hn         1 M2X       0.155000
     22 H2          11.2770    -2.2500    21.6130 ha         1 M2X       0.131000
     23 H3           9.1500    -2.9800    21.4380 h1         1 M2X       0.070700
     24 H4           7.8390    -1.1440    17.9960 h4         1 M2X       0.017100
     25 H5           8.8860    -3.8490    23.5790 hn         1 M2X       0.410000
     26 H6           7.6710    -2.8350    23.9420 hn         1 M2X       0.410000
     27 H8           4.9120     1.5790    17.0460 h4         1 M2X       0.020100
     28 H9          10.0200     1.1990    24.9160 ha         1 M2X       0.126000
     29 H10          4.6620     2.2520    19.4030 ha         1 M2X       0.122000
     30 H11          5.4910     0.5890    22.1300 hc         1 M2X       0.051700
     31 H12          7.0480     1.3880    22.0080 hc         1 M2X       0.051700
     32 H13          5.5660     2.2770    21.6330 hc         1 M2X       0.051700
     33 H14          6.5000     0.3990    25.0730 h1         1 M2X       0.047033
     34 H15          8.0560     0.4480    25.9250 h1         1 M2X       0.047033
     35 H16          7.7310     1.5800    24.5900 h1         1 M2X       0.047033
     36 H17         12.3300     1.0260    24.1820 ha         1 M2X       0.132000
     37 C14          6.0630     1.3120    21.5490 c3         1 M2X      -0.051800
@<TRIPOS>BOND
     1     1     6 1   
     2     1    15 1   
     3     1    21 1   
     4     2     3 ar  
     5     2    19 1   
     6     2    20 ar  
     7     3     4 ar  
     8     3    22 1   
     9     4     5 1   
    10     4    12 ar  
    11     5     6 1   
    12     5     9 1   
    13     5    23 1   
    14     6    13 2   
    15     7    10 ar  
    16     7    15 ar  
    17     7    24 1   
    18     8    15 ar  
    19     8    16 ar  
    20     8    37 1   
    21     9    25 1   
    22     9    26 1   
    23    10    11 ar  
    24    11    16 ar  
    25    11    27 1   
    26    12    14 ar  
    27    12    18 1   
    28    14    20 ar  
    29    14    28 1   
    30    16    29 1   
    31    17    18 1   
    32    17    33 1   
    33    17    34 1   
    34    17    35 1   
    35    20    36 1   
    36    30    37 1   
    37    31    37 1   
    38    32    37 1   
@<TRIPOS>SUBSTRUCTURE
     1 M2X         1 TEMP              0 ****  ****    0 ROOT
