@<TRIPOS>MOLECULE
M2Y
   47    50     1     0     0
SMALL
abcg2


@<TRIPOS>ATOM
      1 C4          -0.7430    -1.4730    -0.1790 ca         1 M2Y       0.444900
      2 C5           0.6780    -1.5510    -0.1020 ca         1 M2Y      -0.277800
      3 C6           1.2050    -2.8330    -0.0150 ca         1 M2Y       0.226300
      4 N1           0.5010    -3.9650    -0.0020 nb         1 M2Y      -0.278000
      5 N3          -1.4490    -2.6100    -0.1830 nb         1 M2Y      -0.238000
      6 CAN          4.2360     1.0320     0.3050 ca         1 M2Y      -0.105000
      7 CAO          5.4250     1.7340     0.2670 ca         1 M2Y       0.131000
      8 CLAZ         5.3990     3.4120     0.7130 cl         1 M2Y      -0.233000
      9 CAP          6.6360     1.1470    -0.1010 ca         1 M2Y      -0.112300
     10 CAS          7.9200     1.9150    -0.1340 c3         1 M2Y      -0.031800
     11 CAQ          6.5890    -0.2030    -0.4360 ca         1 M2Y      -0.104000
     12 CAR          5.4080    -0.9270    -0.4150 ca         1 M2Y      -0.128000
     13 CAM          4.2080    -0.3190    -0.0460 ca         1 M2Y       0.052200
     14 CAJ          2.9440    -1.0500    -0.0370 cc         1 M2Y      -0.116600
     15 SAK          2.9330    -2.7930     0.0670 ss         1 M2Y      -0.233900
     16 CAI          1.6840    -0.5430    -0.1150 cd         1 M2Y      -0.047200
     17 C2          -0.8020    -3.7610    -0.0950 ca         1 M2Y       0.181900
     18 NAA         -1.3650    -0.3060    -0.3000 nu         1 M2Y      -0.784100
     19 CAB         -2.7950    -0.1010    -0.1210 c3         1 M2Y      -0.069500
     20 PBA         -3.0980     0.3990     1.6760 p5         1 M2Y       1.246500
     21 OBC         -4.5980     0.2140     1.9070 o          1 M2Y      -0.902167
     22 OBD         -2.2230    -0.5710     2.4760 o          1 M2Y      -0.902167
     23 OBB         -2.6090     1.8550     1.7280 o          1 M2Y      -0.902167
     24 CAL         -3.2460     0.9320    -1.1600 c3         1 M2Y      -0.010100
     25 CAT         -4.7330     1.1330    -1.2390 ca         1 M2Y      -0.025300
     26 CAU         -5.3750     2.0730    -0.4350 ca         1 M2Y      -0.077000
     27 CAV         -6.7420     2.2810    -0.5390 ca         1 M2Y      -0.131000
     28 CAW         -7.5000     1.5320    -1.4340 ca         1 M2Y      -0.142000
     29 CAX         -6.8750     0.5810    -2.2280 ca         1 M2Y      -0.131000
     30 CAY         -5.5010     0.3890    -2.1310 ca         1 M2Y      -0.077000
     31 H1           3.3300     1.5330     0.6210 ha         1 M2Y       0.146000
     32 H2           8.1710     2.3130     0.8490 hc         1 M2Y       0.034367
     33 H3           8.7410     1.2780    -0.4590 hc         1 M2Y       0.034367
     34 H4           7.8600     2.7630    -0.8180 hc         1 M2Y       0.034367
     35 H5           7.5050    -0.7000    -0.7290 ha         1 M2Y       0.096000
     36 H6           5.4320    -1.9690    -0.7070 ha         1 M2Y       0.119000
     37 H7           1.4880     0.5160    -0.2090 ha         1 M2Y       0.199000
     38 H8          -1.4220    -4.6520    -0.1000 h5         1 M2Y       0.019100
     39 H9          -0.8050     0.5200    -0.1510 hn         1 M2Y       0.489000
     40 H10         -3.2790    -1.0560    -0.3290 h1         1 M2Y       0.075700
     41 H13         -2.7660     1.8860    -0.9280 hc         1 M2Y       0.021200
     42 H14         -2.8810     0.6240    -2.1450 hc         1 M2Y       0.021200
     43 H15         -4.7850     2.6380     0.2740 ha         1 M2Y       0.126500
     44 H16         -7.2240     3.0260     0.0830 ha         1 M2Y       0.081500
     45 H17         -8.5670     1.6950    -1.5150 ha         1 M2Y       0.072000
     46 H18         -7.4530    -0.0050    -2.9310 ha         1 M2Y       0.081500
     47 H19         -5.0180    -0.3450    -2.7660 ha         1 M2Y       0.126500
@<TRIPOS>BOND
     1     1     2 ar  
     2     1     5 ar  
     3     1    18 1   
     4     2     3 ar  
     5     2    16 1   
     6     3     4 ar  
     7     3    15 1   
     8     4    17 ar  
     9     5    17 ar  
    10     6     7 ar  
    11     6    13 ar  
    12     6    31 1   
    13     7     8 1   
    14     7     9 ar  
    15     9    10 1   
    16     9    11 ar  
    17    10    32 1   
    18    10    33 1   
    19    10    34 1   
    20    11    12 ar  
    21    11    35 1   
    22    12    13 ar  
    23    12    36 1   
    24    13    14 1   
    25    14    15 1   
    26    14    16 2   
    27    16    37 1   
    28    17    38 1   
    29    18    19 1   
    30    18    39 1   
    31    19    20 1   
    32    19    24 1   
    33    19    40 1   
    34    20    21 1   
    35    20    22 1   
    36    20    23 1   
    37    24    25 1   
    38    24    41 1   
    39    24    42 1   
    40    25    26 ar  
    41    25    30 ar  
    42    26    27 ar  
    43    26    43 1   
    44    27    28 ar  
    45    27    44 1   
    46    28    29 ar  
    47    28    45 1   
    48    29    30 ar  
    49    29    46 1   
    50    30    47 1   
@<TRIPOS>SUBSTRUCTURE
     1 M2Y         1 TEMP              0 ****  ****    0 ROOT
