@<TRIPOS>MOLECULE
M2Y
   47    50     1     0     0
SMALL
No Charge or Current Charge


@<TRIPOS>ATOM
      1 C4          -0.6690    -1.6470    -0.1400 ca         1 M2Y       0.444900
      2 C5           0.7260    -1.7640    -0.0550 ca         1 M2Y      -0.277800
      3 C6           1.2730    -3.0220     0.0900 ca         1 M2Y       0.226300
      4 N1           0.5220    -4.1350     0.1490 nb         1 M2Y      -0.278000
      5 N3          -1.4470    -2.7490    -0.0890 nb         1 M2Y      -0.238000
      6 CAN          4.1990     0.9340     0.4270 ca         1 M2Y      -0.105000
      7 CAO          5.3440     1.7440     0.3520 ca         1 M2Y       0.131000
      8 ClAZ         5.2560     3.3930     0.9750 cl         1 M2Y      -0.233000
      9 CAP          6.5390     1.2430    -0.2070 ca         1 M2Y      -0.112300
     10 CAS          7.7920     2.1070    -0.2980 c3         1 M2Y      -0.031800
     11 CAQ          6.5660    -0.0820    -0.6830 ca         1 M2Y      -0.104000
     12 CAR          5.4180    -0.8890    -0.6050 ca         1 M2Y      -0.128000
     13 CAM          4.2220    -0.3900    -0.0560 ca         1 M2Y       0.052200
     14 CAJ          3.0380    -1.2510     0.0200 cc         1 M2Y      -0.116600
     15 SAK          3.0560    -3.0300     0.1760 ss         1 M2Y      -0.233900
     16 CAI          1.7570    -0.7450    -0.1040 cd         1 M2Y      -0.047200
     17 C2          -0.8130    -3.9360     0.0560 ca         1 M2Y       0.181900
     18 NAA         -1.2880    -0.4080    -0.3000 nu         1 M2Y      -0.784100
     19 CAB         -2.7460    -0.0930    -0.0670 c3         1 M2Y      -0.069500
     20 PBA         -3.4080     0.0740     1.7190 p5         1 M2Y       1.246500
     21 OBC         -4.8580    -0.2780     1.7570 o          1 M2Y      -0.902167
     22 OBD         -2.6580    -0.8600     2.6130 o          1 M2Y      -0.902167
     23 OBB         -3.2070     1.4730     2.2010 o          1 M2Y      -0.902167
     24 CAL         -3.1180     1.1300    -0.9500 c3         1 M2Y      -0.010100
     25 CAT         -4.6170     1.3200    -1.1640 ca         1 M2Y      -0.025300
     26 CAU         -5.2820     2.4420    -0.6270 ca         1 M2Y      -0.077000
     27 CAV         -6.6570     2.6280    -0.8540 ca         1 M2Y      -0.131000
     28 CAW         -7.3770     1.6970    -1.6210 ca         1 M2Y      -0.142000
     29 CAX         -6.7210     0.5800    -2.1620 ca         1 M2Y      -0.131000
     30 CAY         -5.3450     0.3920    -1.9360 ca         1 M2Y      -0.077000
     31 H1           3.2990     1.3400     0.8790 ha         1 M2Y       0.146000
     32 H2           8.1210     2.4290     0.6970 hc         1 M2Y       0.034367
     33 H3           8.6270     1.5670    -0.7610 hc         1 M2Y       0.034367
     34 H4           7.6080     3.0050    -0.9000 hc         1 M2Y       0.034367
     35 H5           7.4760    -0.4900    -1.1160 ha         1 M2Y       0.096000
     36 H6           5.4600    -1.9080    -0.9820 ha         1 M2Y       0.119000
     37 H7           1.5520     0.3110    -0.2580 ha         1 M2Y       0.199000
     38 H8          -1.4420    -4.8220     0.1000 h5         1 M2Y       0.019100
     39 H9          -0.6430     0.3790    -0.2560 hn         1 M2Y       0.489000
     40 H10         -3.3400    -0.9360    -0.4410 h1         1 M2Y       0.075700
     41 H13         -2.6690     2.0340    -0.5220 hc         1 M2Y       0.021200
     42 H14         -2.6520     1.0080    -1.9360 hc         1 M2Y       0.021200
     43 H15         -4.7320     3.1690    -0.0340 ha         1 M2Y       0.126500
     44 H16         -7.1630     3.4950    -0.4360 ha         1 M2Y       0.081500
     45 H17         -8.4400     1.8420    -1.7960 ha         1 M2Y       0.072000
     46 H18         -7.2760    -0.1410    -2.7590 ha         1 M2Y       0.081500
     47 H19         -4.8430    -0.4710    -2.3660 ha         1 M2Y       0.126500
@<TRIPOS>BOND
     1     1     2 ar  
     2     1     5 ar  
     3     1    18 1   
     4     2     3 ar  
     5     2    16 1   
     6     3     4 ar  
     7     3    15 1   
     8     4    17 ar  
     9     5    17 ar  
    10     6     7 ar  
    11     6    13 ar  
    12     6    31 1   
    13     7     8 1   
    14     7     9 ar  
    15     9    10 1   
    16     9    11 ar  
    17    10    32 1   
    18    10    33 1   
    19    10    34 1   
    20    11    12 ar  
    21    11    35 1   
    22    12    13 ar  
    23    12    36 1   
    24    13    14 1   
    25    14    15 1   
    26    14    16 2   
    27    16    37 1   
    28    17    38 1   
    29    18    19 1   
    30    18    39 1   
    31    19    20 1   
    32    19    24 1   
    33    19    40 1   
    34    20    21 1   
    35    20    22 1   
    36    20    23 1   
    37    24    25 1   
    38    24    41 1   
    39    24    42 1   
    40    25    26 ar  
    41    25    30 ar  
    42    26    27 ar  
    43    26    43 1   
    44    27    28 ar  
    45    27    44 1   
    46    28    29 ar  
    47    28    45 1   
    48    29    30 ar  
    49    29    46 1   
    50    30    47 1   
@<TRIPOS>SUBSTRUCTURE
     1 M2Y         1 TEMP              0 ****  ****    0 ROOT
