@<TRIPOS>MOLECULE
M2Z
   60    63     1     0     0
SMALL
abcg2


@<TRIPOS>ATOM
      1 C10          0.6610     1.3280     0.6830 cp         1 M2Z      -0.079000
      2 C13          3.8210    -0.7550     0.6340 ca         1 M2Z      -0.170500
      3 C17          8.1780    -0.0730    -1.4480 c6         1 M2Z       0.149300
      4 C20          6.5050    -1.5690     0.2920 c6         1 M2Z       0.200800
      5 C21          4.2720     1.3440    -0.4190 ca         1 M2Z      -0.170500
      6 C22          2.9630     1.7290    -0.1980 ca         1 M2Z      -0.064000
      7 C24         -0.3140    -0.6880    -0.5020 c3         1 M2Z      -0.056800
      8 C26         -4.4230    -1.5190     0.4980 ca         1 M2Z       0.156100
      9 C28         -3.8450    -3.4110     1.8030 c3         1 M2Z       0.145900
     10 C01         -5.8580     2.1250    -2.2530 c3         1 M2Z       0.145900
     11 C03         -5.1040     0.3510    -0.8750 ca         1 M2Z       0.156100
     12 C04         -3.9090     1.0030    -0.5750 ca         1 M2Z      -0.217500
     13 C05         -2.9770     0.3900     0.2550 cp         1 M2Z       0.036000
     14 C06         -1.7220     1.1000     0.5930 cp         1 M2Z      -0.100000
     15 C07         -1.8030     2.3340     1.2300 ca         1 M2Z       0.344900
     16 C09          0.4460     2.5500     1.3190 ca         1 M2Z       0.343900
     17 C11          2.0490     0.8890     0.4380 cp         1 M2Z      -0.079000
     18 C12          2.5130    -0.3540     0.8550 ca         1 M2Z      -0.064000
     19 C14          4.7420     0.0850    -0.0100 ca         1 M2Z       0.311000
     20 C16          6.6680     0.0480    -1.5030 c6         1 M2Z       0.200800
     21 C19          8.0200    -1.6550     0.3070 c6         1 M2Z       0.149300
     22 C23         -0.4580     0.5820     0.2850 ca         1 M2Z      -0.011300
     23 C25         -3.2290    -0.8670     0.7930 ca         1 M2Z      -0.217500
     24 C29         -5.3600    -0.9160    -0.3450 ca         1 M2Z       0.027100
     25 C31         -7.6020    -1.2860     0.2020 c3         1 M2Z       0.148900
     26 N08         -0.7490     3.0550     1.5830 nb         1 M2Z      -0.666000
     27 N15          6.0670    -0.2810    -0.2150 nh         1 M2Z      -0.791400
     28 N18          8.5440    -1.4070    -1.0200 n7         1 M2Z      -0.859400
     29 O27         -4.7640    -2.7290     0.9730 os         1 M2Z      -0.323600
     30 O30         -6.5080    -1.5690    -0.6620 os         1 M2Z      -0.328100
     31 H131         4.1090    -1.7410     0.9700 ha         1 M2Z       0.114000
     32 H172         8.5760     0.1140    -2.4470 h1         1 M2Z       0.039450
     33 H171         8.5730     0.7120    -0.7850 h1         1 M2Z       0.039450
     34 H201         6.0960    -2.3990    -0.3030 h1         1 M2Z       0.044950
     35 H202         6.1520    -1.6960     1.3160 h1         1 M2Z       0.044950
     36 H211         4.9330     2.0470    -0.9060 ha         1 M2Z       0.114000
     37 H221         2.6480     2.7080    -0.5400 ha         1 M2Z       0.112500
     38 H241        -0.2770    -1.5670     0.1440 hc         1 M2Z       0.051700
     39 H242        -1.1550    -0.8240    -1.1800 hc         1 M2Z       0.051700
     40 H243         0.6030    -0.6820    -1.0880 hc         1 M2Z       0.051700
     41 H281        -3.6310    -2.8570     2.7200 h1         1 M2Z       0.042033
     42 H282        -4.3110    -4.3560     2.0660 h1         1 M2Z       0.042033
     43 H283        -2.9030    -3.6160     1.2870 h1         1 M2Z       0.042033
     44 H011        -5.7420     2.9070    -1.4980 h1         1 M2Z       0.042033
     45 H012        -4.9830     2.1370    -2.9080 h1         1 M2Z       0.042033
     46 H013        -6.7430     2.3380    -2.8460 h1         1 M2Z       0.042033
     47 H041        -3.6850     1.9760    -0.9910 ha         1 M2Z       0.124500
     48 H071        -2.7780     2.7480     1.4660 h4         1 M2Z       0.022100
     49 H091         1.3000     3.1420     1.6320 h4         1 M2Z       0.022100
     50 H121         1.8470    -1.0360     1.3700 ha         1 M2Z       0.112500
     51 H162         6.4220     1.0680    -1.7880 h1         1 M2Z       0.044950
     52 H161         6.2760    -0.6140    -2.2890 h1         1 M2Z       0.044950
     53 H191         8.4050    -0.9460     1.0570 h1         1 M2Z       0.039450
     54 H192         8.3050    -2.6570     0.6330 h1         1 M2Z       0.039450
     55 H251        -2.4990    -1.3180     1.4520 ha         1 M2Z       0.124500
     56 H313        -7.3950    -1.5920     1.2300 h1         1 M2Z       0.033700
     57 H311        -7.8600    -0.2250     0.1960 h1         1 M2Z       0.033700
     58 H312        -8.4550    -1.8540    -0.1650 h1         1 M2Z       0.033700
     59 H181         9.5510    -1.5030    -1.0170 hn         1 M2Z       0.415000
     60 O02         -6.0630     0.8530    -1.6710 os         1 M2Z      -0.323600
@<TRIPOS>BOND
     1     1    16 ar  
     2     1    17 1   
     3     1    22 ar  
     4     2    18 ar  
     5     2    19 ar  
     6     2    31 1   
     7     3    20 1   
     8     3    28 1   
     9     3    32 1   
    10     3    33 1   
    11     4    21 1   
    12     4    27 1   
    13     4    34 1   
    14     4    35 1   
    15     5     6 ar  
    16     5    19 ar  
    17     5    36 1   
    18     6    17 ar  
    19     6    37 1   
    20     7    22 1   
    21     7    38 1   
    22     7    39 1   
    23     7    40 1   
    24     8    23 ar  
    25     8    24 ar  
    26     8    29 1   
    27     9    29 1   
    28     9    41 1   
    29     9    42 1   
    30     9    43 1   
    31    10    44 1   
    32    10    45 1   
    33    10    46 1   
    34    10    60 1   
    35    11    12 ar  
    36    11    24 ar  
    37    11    60 1   
    38    12    13 ar  
    39    12    47 1   
    40    13    14 1   
    41    13    23 ar  
    42    14    15 ar  
    43    14    22 ar  
    44    15    26 ar  
    45    15    48 1   
    46    16    26 ar  
    47    16    49 1   
    48    17    18 ar  
    49    18    50 1   
    50    19    27 1   
    51    20    27 1   
    52    20    51 1   
    53    20    52 1   
    54    21    28 1   
    55    21    53 1   
    56    21    54 1   
    57    23    55 1   
    58    24    30 1   
    59    25    30 1   
    60    25    56 1   
    61    25    57 1   
    62    25    58 1   
    63    28    59 1   
@<TRIPOS>SUBSTRUCTURE
     1 M2Z         1 TEMP              0 ****  ****    0 ROOT
