@<TRIPOS>MOLECULE
M2Z
   60    63     1     0     0
SMALL
No Charge or Current Charge


@<TRIPOS>ATOM
      1 C10          0.6950     1.3220     0.8030 cp         1 M2Z      -0.079000
      2 C13          3.8540    -0.8360     0.6340 ca         1 M2Z      -0.170500
      3 C17          8.1340    -0.3040    -1.8500 c6         1 M2Z       0.149300
      4 C20          6.7730    -1.4250     0.4930 c6         1 M2Z       0.200800
      5 C21          4.3020     1.2780    -0.4610 ca         1 M2Z      -0.170500
      6 C22          2.9910     1.7020    -0.1830 ca         1 M2Z      -0.064000
      7 C24         -0.3530    -0.7000    -0.3870 c3         1 M2Z      -0.056800
      8 C26         -4.4590    -1.5910     0.6470 ca         1 M2Z       0.156100
      9 C28         -3.6880    -3.6620     1.7690 c3         1 M2Z       0.145900
     10 C01         -6.1300     2.4590    -1.6320 c3         1 M2Z       0.145900
     11 C03         -5.2870     0.4200    -0.4870 ca         1 M2Z       0.156100
     12 C04         -4.0590     1.0580    -0.1950 ca         1 M2Z      -0.217500
     13 C05         -3.0270     0.3970     0.5000 cp         1 M2Z       0.036000
     14 C06         -1.7450     1.1010     0.8030 cp         1 M2Z      -0.100000
     15 C07         -1.7870     2.3430     1.4800 ca         1 M2Z       0.344900
     16 C09          0.5100     2.5530     1.4800 ca         1 M2Z       0.343900
     17 C11          2.0840     0.8590     0.4980 cp         1 M2Z      -0.079000
     18 C12          2.5420    -0.4140     0.9110 ca         1 M2Z      -0.064000
     19 C14          4.7460     0.0050    -0.0610 ca         1 M2Z       0.311000
     20 C16          6.5710    -0.3670    -1.7640 c6         1 M2Z       0.200800
     21 C19          8.3330    -1.3430     0.3670 c6         1 M2Z       0.149300
     22 C23         -0.4680     0.5860     0.4360 ca         1 M2Z      -0.011300
     23 C25         -3.2470    -0.9270     0.9250 ca         1 M2Z      -0.217500
     24 C29         -5.4920    -0.9290    -0.0620 ca         1 M2Z       0.027100
     25 C31         -7.8170    -1.1860    -0.9900 c3         1 M2Z       0.148900
     26 N08         -0.6950     3.0630     1.8150 nb         1 M2Z      -0.666000
     27 N15          6.0710    -0.4010    -0.3500 nh         1 M2Z      -0.791400
     28 N18          8.8070    -1.3660    -1.0470 n7         1 M2Z      -0.859400
     29 O27         -4.6760    -2.8970     1.0570 os         1 M2Z      -0.323600
     30 O30         -6.6560    -1.6670    -0.2900 os         1 M2Z      -0.328100
     31 H131         4.1660    -1.8250     0.9550 ha         1 M2Z       0.114000
     32 H172         8.4450    -0.3850    -2.9020 h1         1 M2Z       0.039450
     33 H171         8.4650     0.6820    -1.4880 h1         1 M2Z       0.039450
     34 H201         6.4490    -2.4340     0.1970 h1         1 M2Z       0.044950
     35 H202         6.5080    -1.2930     1.5520 h1         1 M2Z       0.044950
     36 H211         4.9780     1.9490    -0.9800 ha         1 M2Z       0.114000
     37 H221         2.6720     2.6920    -0.5050 ha         1 M2Z       0.112500
     38 H241        -0.2730    -1.5800     0.2620 hc         1 M2Z       0.051700
     39 H242        -1.2190    -0.8440    -1.0420 hc         1 M2Z       0.051700
     40 H243         0.5250    -0.6860    -1.0440 hc         1 M2Z       0.051700
     41 H281        -3.4360    -3.1830     2.7230 h1         1 M2Z       0.042033
     42 H282        -4.0700    -4.6680     1.9850 h1         1 M2Z       0.042033
     43 H283        -2.7720    -3.7680     1.1730 h1         1 M2Z       0.042033
     44 H011        -5.9630     3.1380    -0.7860 h1         1 M2Z       0.042033
     45 H012        -5.2900     2.5490    -2.3320 h1         1 M2Z       0.042033
     46 H013        -7.0400     2.7840    -2.1520 h1         1 M2Z       0.042033
     47 H041        -3.8750     2.0800    -0.5110 ha         1 M2Z       0.124500
     48 H071        -2.7440     2.7730     1.7730 h4         1 M2Z       0.022100
     49 H091         1.3730     3.1490     1.7730 h4         1 M2Z       0.022100
     50 H121         1.8750    -1.0770     1.4580 ha         1 M2Z       0.112500
     51 H162         6.1630     0.4990    -2.3040 h1         1 M2Z       0.044950
     52 H161         6.2270    -1.2660    -2.2960 h1         1 M2Z       0.044950
     53 H191         8.6730    -0.4120     0.8430 h1         1 M2Z       0.039450
     54 H192         8.7870    -2.1770     0.9220 h1         1 M2Z       0.039450
     55 H251        -2.4570    -1.4210     1.4810 ha         1 M2Z       0.124500
     56 H313        -8.2520    -0.3190    -0.4790 h1         1 M2Z       0.033700
     57 H311        -7.5670    -0.9120    -2.0230 h1         1 M2Z       0.033700
     58 H312        -8.5830    -1.9700    -1.0290 h1         1 M2Z       0.033700
     59 H181         9.8230    -1.2090    -1.0640 hn         1 M2Z       0.415000
     60 O02         -6.2760     1.1020    -1.1790 os         1 M2Z      -0.323600
@<TRIPOS>BOND
     1     1    16 ar  
     2     1    17 1   
     3     1    22 ar  
     4     2    18 ar  
     5     2    19 ar  
     6     2    31 1   
     7     3    20 1   
     8     3    28 1   
     9     3    32 1   
    10     3    33 1   
    11     4    21 1   
    12     4    27 1   
    13     4    34 1   
    14     4    35 1   
    15     5     6 ar  
    16     5    19 ar  
    17     5    36 1   
    18     6    17 ar  
    19     6    37 1   
    20     7    22 1   
    21     7    38 1   
    22     7    39 1   
    23     7    40 1   
    24     8    23 ar  
    25     8    24 ar  
    26     8    29 1   
    27     9    29 1   
    28     9    41 1   
    29     9    42 1   
    30     9    43 1   
    31    10    44 1   
    32    10    45 1   
    33    10    46 1   
    34    10    60 1   
    35    11    12 ar  
    36    11    24 ar  
    37    11    60 1   
    38    12    13 ar  
    39    12    47 1   
    40    13    14 1   
    41    13    23 ar  
    42    14    15 ar  
    43    14    22 ar  
    44    15    26 ar  
    45    15    48 1   
    46    16    26 ar  
    47    16    49 1   
    48    17    18 ar  
    49    18    50 1   
    50    19    27 1   
    51    20    27 1   
    52    20    51 1   
    53    20    52 1   
    54    21    28 1   
    55    21    53 1   
    56    21    54 1   
    57    23    55 1   
    58    24    30 1   
    59    25    30 1   
    60    25    56 1   
    61    25    57 1   
    62    25    58 1   
    63    28    59 1   
@<TRIPOS>SUBSTRUCTURE
     1 M2Z         1 TEMP              0 ****  ****    0 ROOT
