@<TRIPOS>MOLECULE
M30
   25    25     1     0     0
SMALL
No Charge or Current Charge


@<TRIPOS>ATOM
      1 OXT         -2.9470    -5.4780     4.3950 o          1 M30      -0.841800
      2 C           -2.3080    -6.3160     3.7640 c          1 M30       0.927600
      3 O           -1.2350    -6.7630     4.1630 o          1 M30      -0.841800
      4 CA          -2.9010    -6.8680     2.4030 c3         1 M30       0.014800
      5 N           -3.2060    -8.3450     2.3530 n7         1 M30      -0.810200
      6 C3          -3.6330    -8.9130     1.0570 c6         1 M30       0.187500
      7 C4          -5.0280    -8.3860     0.6150 c6         1 M30      -0.076400
      8 C5          -5.4790    -9.0250    -0.7230 c6         1 M30      -0.072400
      9 C6          -5.4740   -10.5710    -0.6400 c6         1 M30      -0.071400
     10 C7          -4.0870   -11.1000    -0.2040 c6         1 M30      -0.072400
     11 C8          -3.6400   -10.4630     1.1360 c6         1 M30      -0.076400
     12 HA1         -3.8100    -6.2940     2.1810 h1         1 M30       0.009700
     13 HA2         -2.1720    -6.6230     1.6190 h1         1 M30       0.009700
     14 H2          -2.3550    -8.8390     2.6470 hn         1 M30       0.381800
     15 H4          -2.8920    -8.6190     0.2980 h1         1 M30      -0.000300
     16 H5          -5.7720    -8.6010     1.3940 hc         1 M30       0.044200
     17 H6          -5.0050    -7.2950     0.4970 hc         1 M30       0.044200
     18 H7          -6.4850    -8.6700    -0.9860 hc         1 M30       0.026200
     19 H8          -4.8110    -8.6970    -1.5320 hc         1 M30       0.026200
     20 H9          -6.2390   -10.9050     0.0750 hc         1 M30       0.025700
     21 H10         -5.7470   -10.9980    -1.6140 hc         1 M30       0.025700
     22 H11         -4.1200   -12.1940    -0.1040 hc         1 M30       0.026200
     23 H12         -3.3440   -10.8790    -0.9830 hc         1 M30       0.026200
     24 H13         -2.6390   -10.8300     1.3980 hc         1 M30       0.044200
     25 H14         -4.3140   -10.7930     1.9400 hc         1 M30       0.044200
@<TRIPOS>BOND
     1     1     2 1   
     2     2     3 1   
     3     2     4 1   
     4     4     5 1   
     5     4    12 1   
     6     4    13 1   
     7     5     6 1   
     8     5    14 1   
     9     6     7 1   
    10     6    11 1   
    11     6    15 1   
    12     7     8 1   
    13     7    16 1   
    14     7    17 1   
    15     8     9 1   
    16     8    18 1   
    17     8    19 1   
    18     9    10 1   
    19     9    20 1   
    20     9    21 1   
    21    10    11 1   
    22    10    22 1   
    23    10    23 1   
    24    11    24 1   
    25    11    25 1   
@<TRIPOS>SUBSTRUCTURE
     1 M30         1 TEMP              0 ****  ****    0 ROOT
