@<TRIPOS>MOLECULE
M30
   25    25     1     0     0
SMALL
bcc


@<TRIPOS>ATOM
      1 OXT         -2.1760    -5.2370     3.8270 o          1 M30      -0.841800
      2 C           -2.2010    -6.4620     3.6010 c          1 M30       0.927600
      3 O           -1.5610    -7.3520     4.1970 o          1 M30      -0.841800
      4 CA          -3.0910    -6.9070     2.4210 c3         1 M30       0.014800
      5 N           -3.3460    -8.3310     2.4080 n7         1 M30      -0.810200
      6 C3          -3.6760    -8.8770     1.1060 c6         1 M30       0.187500
      7 C4          -5.0570    -8.4150     0.6460 c6         1 M30      -0.076400
      8 C5          -5.4400    -9.0290    -0.6980 c6         1 M30      -0.072400
      9 C6          -5.3750   -10.5510    -0.6530 c6         1 M30      -0.071400
     10 C7          -4.0040   -11.0260    -0.1860 c6         1 M30      -0.072400
     11 C8          -3.6280   -10.4020     1.1540 c6         1 M30      -0.076400
     12 HA1         -4.0290    -6.3440     2.4600 h1         1 M30       0.009700
     13 HA2         -2.5860    -6.5680     1.4970 h1         1 M30       0.009700
     14 H2          -2.5110    -8.7830     2.7640 hn         1 M30       0.381800
     15 H4          -2.9490    -8.5440     0.3380 h1         1 M30      -0.000300
     16 H5          -5.7920    -8.7000     1.4080 hc         1 M30       0.044200
     17 H6          -5.0900    -7.3240     0.5750 hc         1 M30       0.044200
     18 H7          -6.4410    -8.7000    -0.9870 hc         1 M30       0.026200
     19 H8          -4.7600    -8.6600    -1.4720 hc         1 M30       0.026200
     20 H9          -6.1410   -10.9270     0.0350 hc         1 M30       0.025700
     21 H10         -5.6060   -10.9720    -1.6350 hc         1 M30       0.025700
     22 H11         -3.9860   -12.1160    -0.1060 hc         1 M30       0.026200
     23 H12         -3.2520   -10.7600    -0.9360 hc         1 M30       0.026200
     24 H13         -2.6280   -10.7290     1.4550 hc         1 M30       0.044200
     25 H14         -4.3190   -10.7510     1.9290 hc         1 M30       0.044200
@<TRIPOS>BOND
     1     1     2 1   
     2     2     3 1   
     3     2     4 1   
     4     4     5 1   
     5     4    12 1   
     6     4    13 1   
     7     5     6 1   
     8     5    14 1   
     9     6     7 1   
    10     6    11 1   
    11     6    15 1   
    12     7     8 1   
    13     7    16 1   
    14     7    17 1   
    15     8     9 1   
    16     8    18 1   
    17     8    19 1   
    18     9    10 1   
    19     9    20 1   
    20     9    21 1   
    21    10    11 1   
    22    10    22 1   
    23    10    23 1   
    24    11    24 1   
    25    11    25 1   
@<TRIPOS>SUBSTRUCTURE
     1 M30         1 TEMP              0 ****  ****    0 ROOT
