@<TRIPOS>MOLECULE
M31
   59    61     1     0     0
SMALL
No Charge or Current Charge


@<TRIPOS>ATOM
      1 C7          -5.7420     0.4530     0.5900 c3         1 M31      -0.283100
      2 S8          -5.1470     0.6970    -1.0970 s6         1 M31       1.191100
      3 C6          -7.2580     0.3420     0.7020 ca         1 M31      -0.078300
      4 C1          -7.8860    -0.9130     0.5950 ca         1 M31      -0.086000
      5 C2          -9.2850    -1.0170     0.7010 ca         1 M31      -0.108500
      6 C30        -10.0610     0.1350     0.9150 ca         1 M31      -0.100000
      7 C4          -9.4380     1.3900     1.0240 ca         1 M31      -0.108500
      8 C5          -8.0400     1.4930     0.9190 ca         1 M31      -0.086000
      9 O13         -5.3620    -0.5210    -1.8840 o          1 M31      -0.522500
     10 O14         -5.5950     1.9920    -1.6100 o          1 M31      -0.522500
     11 N9          -3.4970     0.8380    -0.9030 n7         1 M31      -0.879300
     12 C10         -2.7000    -0.3550    -0.4600 c3         1 M31       0.134800
     13 C11         -1.2010    -0.0620    -0.1170 c          1 M31       0.603100
     14 O15         -0.7620     1.0840    -0.0640 o          1 M31      -0.604100
     15 N12         -0.3530    -1.1570     0.1600 n          1 M31      -0.393800
     16 C16          1.0870    -0.9850     0.5050 c5         1 M31       0.024700
     17 C17          2.0040    -0.6830    -0.7240 c          1 M31       0.596100
     18 O18          1.7130    -0.7530    -1.9120 o          1 M31      -0.586100
     19 C21          1.4230    -2.3920     1.0900 c5         1 M31      -0.084400
     20 C22          0.5470    -3.3300     0.2210 c5         1 M31      -0.092400
     21 C23         -0.8020    -2.5680     0.1860 c5         1 M31       0.107000
     22 N19          3.2440    -0.2800    -0.2800 ns         1 M31      -0.502900
     23 C20          4.3590     0.0650    -1.1610 c3         1 M31       0.138300
     24 C24          5.6650     0.1700    -0.3790 ca         1 M31      -0.076300
     25 C25          6.4540    -0.9730    -0.0840 ca         1 M31      -0.064300
     26 C26          6.0460    -2.3780    -0.5280 c3         1 M31       0.194100
     27 N32          6.4990    -2.6690    -1.9020 n8         1 M31      -0.992200
     28 C27          7.6520    -0.8160     0.6450 ca         1 M31      -0.107000
     29 C28          8.0630     0.4550     1.0820 ca         1 M31      -0.098000
     30 C29          7.2790     1.5800     0.7930 ca         1 M31       0.119000
     31 Cl3          7.7910     3.1710     1.3410 cl         1 M31      -0.201000
     32 C31          6.0870     1.4390     0.0680 ca         1 M31      -0.100000
     33 H7          -5.3790     1.3040     1.1760 h1         1 M31       0.091700
     34 H7A         -5.2710    -0.4630     0.9600 h1         1 M31       0.091700
     35 H1          -7.2930    -1.8100     0.4290 ha         1 M31       0.118500
     36 H2          -9.7650    -1.9890     0.6160 ha         1 M31       0.115500
     37 H30        -11.1430     0.0550     0.9960 ha         1 M31       0.114000
     38 H4         -10.0380     2.2820     1.1910 ha         1 M31       0.115500
     39 H5          -7.5650     2.4680     1.0050 ha         1 M31       0.118500
     40 HN9         -3.4400     1.5640    -0.1870 hn         1 M31       0.515000
     41 H10         -3.1320    -0.8150     0.4380 h1         1 M31       0.069700
     42 H10A        -2.7070    -1.1190    -1.2490 h1         1 M31       0.069700
     43 H16          1.2340    -0.1940     1.2520 h1         1 M31       0.078700
     44 H21          2.4890    -2.6420     1.0420 hc         1 M31       0.059200
     45 H21A         1.1270    -2.4540     2.1450 hc         1 M31       0.059200
     46 H22          0.9640    -3.4420    -0.7870 hc         1 M31       0.065200
     47 H22A         0.4480    -4.3350     0.6460 hc         1 M31       0.065200
     48 H23         -1.3990    -2.7670     1.0860 h1         1 M31       0.052200
     49 H23A        -1.3930    -2.8440    -0.6970 h1         1 M31       0.052200
     50 HN19         3.3920    -0.2410     0.7220 hn         1 M31       0.312500
     51 H20          4.4490    -0.6910    -1.9520 h1         1 M31       0.079200
     52 H20A         4.1390     1.0240    -1.6500 h1         1 M31       0.079200
     53 H26          6.4910    -3.1210     0.1490 h1         1 M31       0.035700
     54 H26A         4.9550    -2.4970    -0.4770 h1         1 M31       0.035700
     55 HN32         7.5240    -2.6240    -1.9270 hn         1 M31       0.399000
     56 HN3A         6.2930    -3.6510    -2.1200 hn         1 M31       0.399000
     57 H27          8.2670    -1.6830     0.8770 ha         1 M31       0.114000
     58 H28          8.9870     0.5660     1.6440 ha         1 M31       0.131000
     59 H31          5.4880     2.3210    -0.1470 ha         1 M31       0.131000
@<TRIPOS>BOND
     1     1     2 1   
     2     1     3 1   
     3     1    33 1   
     4     1    34 1   
     5     2     9 2   
     6     2    10 2   
     7     2    11 1   
     8     3     4 ar  
     9     3     8 ar  
    10     4     5 ar  
    11     4    35 1   
    12     5     6 ar  
    13     5    36 1   
    14     6     7 ar  
    15     6    37 1   
    16     7     8 ar  
    17     7    38 1   
    18     8    39 1   
    19    11    12 1   
    20    11    40 1   
    21    12    13 1   
    22    12    41 1   
    23    12    42 1   
    24    13    14 2   
    25    13    15 1   
    26    15    16 1   
    27    15    21 1   
    28    16    17 1   
    29    16    19 1   
    30    16    43 1   
    31    17    18 2   
    32    17    22 1   
    33    19    20 1   
    34    19    44 1   
    35    19    45 1   
    36    20    21 1   
    37    20    46 1   
    38    20    47 1   
    39    21    48 1   
    40    21    49 1   
    41    22    23 1   
    42    22    50 1   
    43    23    24 1   
    44    23    51 1   
    45    23    52 1   
    46    24    25 ar  
    47    24    32 ar  
    48    25    26 1   
    49    25    28 ar  
    50    26    27 1   
    51    26    53 1   
    52    26    54 1   
    53    27    55 1   
    54    27    56 1   
    55    28    29 ar  
    56    28    57 1   
    57    29    30 ar  
    58    29    58 1   
    59    30    31 1   
    60    30    32 ar  
    61    32    59 1   
@<TRIPOS>SUBSTRUCTURE
     1 M31         1 TEMP              0 ****  ****    0 ROOT
