@<TRIPOS>MOLECULE
M31
   59    61     1     0     0
SMALL
bcc


@<TRIPOS>ATOM
      1 C7          -5.4040     0.4900     0.6050 c3         1 M31      -0.172300
      2 S8          -4.8260     0.3050    -1.0920 s6         1 M31       1.221900
      3 C6          -6.8990     0.4420     0.6410 ca         1 M31      -0.078300
      4 C1          -7.5590    -0.7750     0.7880 ca         1 M31      -0.104000
      5 C2          -8.9450    -0.8230     0.8090 ca         1 M31      -0.126500
      6 C30         -9.6840     0.3460     0.6740 ca         1 M31      -0.118000
      7 C4          -9.0310     1.5620     0.5200 ca         1 M31      -0.126500
      8 C5          -7.6440     1.6090     0.4990 ca         1 M31      -0.104000
      9 O13         -5.2360    -1.0090    -1.5640 o          1 M31      -0.593300
     10 O14         -5.2200     1.4930    -1.8310 o          1 M31      -0.593300
     11 N9          -3.1890     0.3030    -1.0270 n7         1 M31      -0.824100
     12 C10         -2.4920    -0.8520    -0.5010 c3         1 M31       0.134800
     13 C11         -1.0980    -0.4260    -0.0730 c          1 M31       0.670100
     14 O15         -0.7590     0.7510    -0.0810 o          1 M31      -0.604100
     15 N12         -0.2900    -1.4060     0.3390 n          1 M31      -0.460800
     16 C16          1.0480    -1.1020     0.8000 c5         1 M31       0.024700
     17 C17          1.9320    -0.6640    -0.3650 c          1 M31       0.663100
     18 O18          1.7300    -1.0490    -1.5040 o          1 M31      -0.586100
     19 C21          1.5240    -2.4400     1.3830 c5         1 M31      -0.084400
     20 C22          0.7770    -3.4800     0.5570 c5         1 M31      -0.092400
     21 C23         -0.5850    -2.8370     0.3230 c5         1 M31       0.107000
     22 N19          2.9660     0.1090    -0.0010 ns         1 M31      -0.569900
     23 C20          4.0050     0.5580    -0.9060 c3         1 M31       0.138300
     24 C24          5.3660     0.3960    -0.2780 ca         1 M31      -0.076300
     25 C25          5.9890    -0.8570    -0.2090 ca         1 M31      -0.064300
     26 C26          5.3850    -2.0810    -0.8470 c3         1 M31       0.194100
     27 N32          5.4830    -1.9930    -2.2980 n8         1 M31      -0.881800
     28 C27          7.2260    -0.9520     0.4160 ca         1 M31      -0.125000
     29 C28          7.8550     0.1550     0.9720 ca         1 M31      -0.116000
     30 C29          7.2240     1.3820     0.8900 ca         1 M31       0.027400
     31 CL3          7.9800     2.7860     1.5720 cl         1 M31      -0.109400
     32 C31          5.9880     1.5080     0.2720 ca         1 M31      -0.118000
     33 H7          -5.0080     1.4410     0.9650 h1         1 M31       0.091700
     34 H7A         -4.9550    -0.3160     1.1870 h1         1 M31       0.091700
     35 H1          -6.9860    -1.6870     0.9020 ha         1 M31       0.136500
     36 H2          -9.4490    -1.7720     0.9330 ha         1 M31       0.133500
     37 H30        -10.7650     0.3090     0.6930 ha         1 M31       0.132000
     38 H4          -9.6020     2.4750     0.4160 ha         1 M31       0.133500
     39 H5          -7.1390     2.5600     0.3830 ha         1 M31       0.136500
     40 HN9         -2.7770     1.1950    -0.7670 hn         1 M31       0.459800
     41 H10         -2.9870    -1.2980     0.3710 h1         1 M31       0.069700
     42 H10A        -2.4300    -1.6310    -1.2630 h1         1 M31       0.069700
     43 H16          1.0240    -0.3250     1.5680 h1         1 M31       0.078700
     44 H21          2.6070    -2.5540     1.3480 hc         1 M31       0.059200
     45 H21A         1.2240    -2.4960     2.4310 hc         1 M31       0.059200
     46 H22          1.2790    -3.6500    -0.3960 hc         1 M31       0.065200
     47 H22A         0.6900    -4.4390     1.0640 hc         1 M31       0.065200
     48 H23         -1.2920    -3.0900     1.1170 h1         1 M31       0.052200
     49 H23A        -1.0210    -3.1420    -0.6280 h1         1 M31       0.052200
     50 HN19         3.0150     0.4310     0.9530 hn         1 M31       0.312500
     51 H20          3.9430    -0.0290    -1.8200 h1         1 M31       0.079200
     52 H20A         3.8430     1.6050    -1.1730 h1         1 M31       0.079200
     53 H26          5.8690    -2.9700    -0.4240 h1         1 M31       0.035700
     54 H26A         4.3290    -2.1610    -0.5860 h1         1 M31       0.035700
     55 HN32         6.4500    -2.1010    -2.5760 hn         1 M31       0.343800
     56 HN3A         4.9830    -2.7680    -2.7140 hn         1 M31       0.343800
     57 H27          7.7200    -1.9150     0.4750 ha         1 M31       0.132000
     58 H28          8.8170     0.0560     1.4540 ha         1 M31       0.149000
     59 H31          5.5060     2.4770     0.2160 ha         1 M31       0.149000
@<TRIPOS>BOND
     1     1     2 1   
     2     1     3 1   
     3     1    33 1   
     4     1    34 1   
     5     2     9 2   
     6     2    10 2   
     7     2    11 1   
     8     3     4 ar  
     9     3     8 ar  
    10     4     5 ar  
    11     4    35 1   
    12     5     6 ar  
    13     5    36 1   
    14     6     7 ar  
    15     6    37 1   
    16     7     8 ar  
    17     7    38 1   
    18     8    39 1   
    19    11    12 1   
    20    11    40 1   
    21    12    13 1   
    22    12    41 1   
    23    12    42 1   
    24    13    14 2   
    25    13    15 1   
    26    15    16 1   
    27    15    21 1   
    28    16    17 1   
    29    16    19 1   
    30    16    43 1   
    31    17    18 2   
    32    17    22 1   
    33    19    20 1   
    34    19    44 1   
    35    19    45 1   
    36    20    21 1   
    37    20    46 1   
    38    20    47 1   
    39    21    48 1   
    40    21    49 1   
    41    22    23 1   
    42    22    50 1   
    43    23    24 1   
    44    23    51 1   
    45    23    52 1   
    46    24    25 ar  
    47    24    32 ar  
    48    25    26 1   
    49    25    28 ar  
    50    26    27 1   
    51    26    53 1   
    52    26    54 1   
    53    27    55 1   
    54    27    56 1   
    55    28    29 ar  
    56    28    57 1   
    57    29    30 ar  
    58    29    58 1   
    59    30    31 1   
    60    30    32 ar  
    61    32    59 1   
@<TRIPOS>SUBSTRUCTURE
     1 M31         1 TEMP              0 ****  ****    0 ROOT
