@<TRIPOS>MOLECULE
M32
   62    64     1     0     0
SMALL
No Charge or Current Charge


@<TRIPOS>ATOM
      1 C7          -5.3570    -0.2240     0.6930 c3         1 M32      -0.246100
      2 S8          -4.1410     1.0040     1.2110 s6         1 M32       1.167100
      3 C6          -6.1060     0.1380    -0.5840 ca         1 M32      -0.083300
      4 C1          -5.5840    -0.2280    -1.8400 ca         1 M32      -0.084500
      5 C2          -6.2750     0.1040    -3.0180 ca         1 M32      -0.109500
      6 C30         -7.4930     0.8020    -2.9470 ca         1 M32      -0.099000
      7 C4          -8.0180     1.1680    -1.6960 ca         1 M32      -0.109500
      8 C5          -7.3270     0.8360    -0.5170 ca         1 M32      -0.084500
      9 O13         -3.0140     1.0310     0.2790 o          1 M32      -0.522500
     10 O14         -4.8390     2.2380     1.5780 o          1 M32      -0.522500
     11 N9          -3.5730     0.3720     2.6460 n7         1 M32      -0.881300
     12 C10         -2.7090    -0.8480     2.6350 c3         1 M32       0.150500
     13 C33         -2.7800    -1.4910     4.0350 c3         1 M32      -0.090100
     14 C11         -1.2110    -0.5650     2.2330 c          1 M32       0.588100
     15 O15         -0.7100     0.5410     2.4200 o          1 M32      -0.610100
     16 N12         -0.4300    -1.6100     1.6890 n          1 M32      -0.383800
     17 C16          1.0120    -1.4320     1.3590 c5         1 M32       0.026700
     18 C17          1.2760    -0.6460     0.0340 c          1 M32       0.591100
     19 O18          0.4710    -0.3620    -0.8430 o          1 M32      -0.570100
     20 C21          1.4610    -2.9160     1.1920 c5         1 M32      -0.081400
     21 C22          0.2170    -3.5620     0.5330 c5         1 M32      -0.093400
     22 C23         -0.9420    -2.9640     1.3710 c5         1 M32       0.111000
     23 N19          2.6020    -0.2720    -0.0160 ns         1 M32      -0.504900
     24 C20          3.2040     0.4620    -1.1280 c3         1 M32       0.140300
     25 C24          4.7260     0.4620    -1.0260 ca         1 M32      -0.072300
     26 C25          5.5100    -0.6150    -1.5170 ca         1 M32      -0.064300
     27 C26          4.8800    -1.8420    -2.1760 c3         1 M32       0.194100
     28 N32          4.6400    -1.6260    -3.6150 n8         1 M32      -0.990200
     29 C27          6.9140    -0.5610    -1.3910 ca         1 M32      -0.108000
     30 C28          7.5380     0.5420    -0.7850 ca         1 M32      -0.100000
     31 C29          6.7610     1.6020    -0.2970 ca         1 M32       0.119000
     32 Cl3          7.5400     2.9820     0.4650 cl         1 M32      -0.203000
     33 C31          5.3640     1.5630    -0.4160 ca         1 M32      -0.100000
     34 H7          -6.0510    -0.3290     1.5330 h1         1 M32       0.097700
     35 H7A         -4.8140    -1.1640     0.5610 h1         1 M32       0.097700
     36 H1          -4.6410    -0.7670    -1.9040 ha         1 M32       0.118500
     37 H2          -5.8670    -0.1790    -3.9860 ha         1 M32       0.115000
     38 H30         -8.0270     1.0590    -3.8590 ha         1 M32       0.113000
     39 H4          -8.9610     1.7080    -1.6390 ha         1 M32       0.115000
     40 H5          -7.7410     1.1230     0.4470 ha         1 M32       0.118500
     41 HN9         -3.0060     1.1560     2.9720 hn         1 M32       0.500000
     42 H10         -3.1130    -1.5800     1.9270 h1         1 M32       0.080700
     43 H33         -2.3790    -0.8120     4.7970 hc         1 M32       0.049367
     44 H33A        -3.8180    -1.7290     4.2970 hc         1 M32       0.049367
     45 H33B        -2.2000    -2.4210     4.0690 hc         1 M32       0.049367
     46 H16          1.5560    -0.9370     2.1750 h1         1 M32       0.073700
     47 H21          2.3690    -3.0310     0.5900 hc         1 M32       0.055700
     48 H21A         1.6640    -3.3730     2.1690 hc         1 M32       0.055700
     49 H22          0.1300    -3.2750    -0.5220 hc         1 M32       0.065700
     50 H22A         0.2360    -4.6570     0.5700 hc         1 M32       0.065700
     51 H23         -1.1070    -3.5420     2.2890 h1         1 M32       0.048700
     52 H23A        -1.8760    -2.9400     0.7940 h1         1 M32       0.048700
     53 HN19         3.1940    -0.5430     0.7600 hn         1 M32       0.311500
     54 H20          2.8870     0.0140    -2.0780 h1         1 M32       0.077700
     55 H20A         2.8290     1.4950    -1.1130 h1         1 M32       0.077700
     56 H26          5.5500    -2.7060    -2.0600 h1         1 M32       0.035200
     57 H26A         3.9280    -2.0960    -1.6890 h1         1 M32       0.035200
     58 HN32         5.5420    -1.4570    -4.0760 hn         1 M32       0.397500
     59 HN3A         4.3130    -2.5040    -4.0350 hn         1 M32       0.397500
     60 H27          7.5260    -1.3800    -1.7650 ha         1 M32       0.113000
     61 H28          8.6210     0.5740    -0.6920 ha         1 M32       0.129000
     62 H31          4.7750     2.3910    -0.0300 ha         1 M32       0.133000
@<TRIPOS>BOND
     1     1     2 1   
     2     1     3 1   
     3     1    34 1   
     4     1    35 1   
     5     2     9 2   
     6     2    10 2   
     7     2    11 1   
     8     3     4 ar  
     9     3     8 ar  
    10     4     5 ar  
    11     4    36 1   
    12     5     6 ar  
    13     5    37 1   
    14     6     7 ar  
    15     6    38 1   
    16     7     8 ar  
    17     7    39 1   
    18     8    40 1   
    19    11    12 1   
    20    11    41 1   
    21    12    13 1   
    22    12    14 1   
    23    12    42 1   
    24    13    43 1   
    25    13    44 1   
    26    13    45 1   
    27    14    15 2   
    28    14    16 1   
    29    16    17 1   
    30    16    22 1   
    31    17    18 1   
    32    17    20 1   
    33    17    46 1   
    34    18    19 2   
    35    18    23 1   
    36    20    21 1   
    37    20    47 1   
    38    20    48 1   
    39    21    22 1   
    40    21    49 1   
    41    21    50 1   
    42    22    51 1   
    43    22    52 1   
    44    23    24 1   
    45    23    53 1   
    46    24    25 1   
    47    24    54 1   
    48    24    55 1   
    49    25    26 ar  
    50    25    33 ar  
    51    26    27 1   
    52    26    29 ar  
    53    27    28 1   
    54    27    56 1   
    55    27    57 1   
    56    28    58 1   
    57    28    59 1   
    58    29    30 ar  
    59    29    60 1   
    60    30    31 ar  
    61    30    61 1   
    62    31    32 1   
    63    31    33 ar  
    64    33    62 1   
@<TRIPOS>SUBSTRUCTURE
     1 M32         1 TEMP              0 ****  ****    0 ROOT
