@<TRIPOS>MOLECULE
M32
   62    64     1     0     0
SMALL
abcg2


@<TRIPOS>ATOM
      1 C7          -5.4500    -0.0080     0.7010 c3         1 M32      -0.246100
      2 S8          -3.7260     0.4740     0.8600 s6         1 M32       1.167100
      3 C6          -5.9650     0.3880    -0.6460 ca         1 M32      -0.083300
      4 C1          -5.8480    -0.4790    -1.7280 ca         1 M32      -0.084500
      5 C2          -6.3090    -0.1040    -2.9820 ca         1 M32      -0.109500
      6 C30         -6.8860     1.1460    -3.1650 ca         1 M32      -0.099000
      7 C4          -7.0020     2.0180    -2.0900 ca         1 M32      -0.109500
      8 C5          -6.5390     1.6420    -0.8380 ca         1 M32      -0.084500
      9 O13         -2.9590    -0.2870    -0.1170 o          1 M32      -0.522500
     10 O14         -3.6580     1.9280     0.8530 o          1 M32      -0.522500
     11 N9          -3.3500    -0.0520     2.3870 n7         1 M32      -0.881300
     12 C10         -2.5020    -1.2220     2.5250 c3         1 M32       0.150500
     13 C33         -2.5080    -1.6600     3.9880 c3         1 M32      -0.090100
     14 C11         -1.0650    -0.9200     2.0970 c          1 M32       0.588100
     15 O15         -0.6270     0.2210     2.1550 o          1 M32      -0.610100
     16 N12         -0.2960    -1.9620     1.7560 n          1 M32      -0.383800
     17 C16          1.1100    -1.7550     1.4800 c5         1 M32       0.026700
     18 C17          1.3020    -0.9590     0.1930 c          1 M32       0.591100
     19 O18          0.5700    -1.1070    -0.7700 o          1 M32      -0.570100
     20 C21          1.6500    -3.1830     1.3280 c5         1 M32      -0.081400
     21 C22          0.4560    -3.9650     0.7920 c5         1 M32      -0.093400
     22 C23         -0.7340    -3.3330     1.5050 c5         1 M32       0.111000
     23 N19          2.3810    -0.1600     0.2000 ns         1 M32      -0.504900
     24 C20          2.8100     0.6220    -0.9410 c3         1 M32       0.140300
     25 C24          4.3140     0.7070    -0.9890 ca         1 M32      -0.072300
     26 C25          5.0960    -0.3760    -1.4130 ca         1 M32      -0.064300
     27 C26          4.4800    -1.6490    -1.9320 c3         1 M32       0.194100
     28 N32          3.8790    -1.4250    -3.2400 n8         1 M32      -0.990200
     29 C27          6.4790    -0.2440    -1.4020 ca         1 M32      -0.108000
     30 C28          7.1020     0.9240    -0.9830 ca         1 M32      -0.100000
     31 C29          6.3120     1.9810    -0.5710 ca         1 M32       0.119000
     32 CL3          7.0550     3.4560    -0.0420 cl         1 M32      -0.203000
     33 C31          4.9290     1.8790    -0.5690 ca         1 M32      -0.100000
     34 H7          -5.9850     0.4830     1.5150 h1         1 M32       0.097700
     35 H7A         -5.4900    -1.0870     0.8610 h1         1 M32       0.097700
     36 H1          -5.4040    -1.4580    -1.5880 ha         1 M32       0.118500
     37 H2          -6.2170    -0.7880    -3.8150 ha         1 M32       0.115000
     38 H30         -7.2480     1.4380    -4.1420 ha         1 M32       0.113000
     39 H4          -7.4550     2.9910    -2.2280 ha         1 M32       0.115000
     40 H5          -6.6360     2.3230    -0.0010 ha         1 M32       0.118500
     41 HN9         -3.0820     0.7270     2.9810 hn         1 M32       0.500000
     42 H10         -2.9300    -2.0260     1.9250 h1         1 M32       0.080700
     43 H33         -2.1160    -0.8720     4.6330 hc         1 M32       0.049367
     44 H33A        -3.5220    -1.8950     4.3060 hc         1 M32       0.049367
     45 H33B        -1.8910    -2.5460     4.1310 hc         1 M32       0.049367
     46 H16          1.5930    -1.2400     2.3140 h1         1 M32       0.073700
     47 H21          2.5260    -3.2340     0.6810 hc         1 M32       0.055700
     48 H21A         1.9450    -3.5580     2.3090 hc         1 M32       0.055700
     49 H22          0.3630    -3.8300    -0.2860 hc         1 M32       0.065700
     50 H22A         0.5280    -5.0330     0.9910 hc         1 M32       0.065700
     51 H23         -0.9540    -3.8490     2.4440 h1         1 M32       0.048700
     52 H23A        -1.6330    -3.3570     0.8890 h1         1 M32       0.048700
     53 HN19         2.8650    -0.0120     1.0720 hn         1 M32       0.311500
     54 H20          2.4310     0.1500    -1.8460 h1         1 M32       0.077700
     55 H20A         2.3900     1.6310    -0.8930 h1         1 M32       0.077700
     56 H26          5.2460    -2.4340    -1.9270 h1         1 M32       0.035200
     57 H26A         3.6950    -1.9900    -1.2540 h1         1 M32       0.035200
     58 HN32         4.6110    -1.2710    -3.9230 hn         1 M32       0.397500
     59 HN3A         3.3950    -2.2640    -3.5340 hn         1 M32       0.397500
     60 H27          7.0930    -1.0740    -1.7310 ha         1 M32       0.113000
     61 H28          8.1810     1.0040    -0.9850 ha         1 M32       0.129000
     62 H31          4.3240     2.7150    -0.2390 ha         1 M32       0.133000
@<TRIPOS>BOND
     1     1     2 1   
     2     1     3 1   
     3     1    34 1   
     4     1    35 1   
     5     2     9 2   
     6     2    10 2   
     7     2    11 1   
     8     3     4 ar  
     9     3     8 ar  
    10     4     5 ar  
    11     4    36 1   
    12     5     6 ar  
    13     5    37 1   
    14     6     7 ar  
    15     6    38 1   
    16     7     8 ar  
    17     7    39 1   
    18     8    40 1   
    19    11    12 1   
    20    11    41 1   
    21    12    13 1   
    22    12    14 1   
    23    12    42 1   
    24    13    43 1   
    25    13    44 1   
    26    13    45 1   
    27    14    15 2   
    28    14    16 1   
    29    16    17 1   
    30    16    22 1   
    31    17    18 1   
    32    17    20 1   
    33    17    46 1   
    34    18    19 2   
    35    18    23 1   
    36    20    21 1   
    37    20    47 1   
    38    20    48 1   
    39    21    22 1   
    40    21    49 1   
    41    21    50 1   
    42    22    51 1   
    43    22    52 1   
    44    23    24 1   
    45    23    53 1   
    46    24    25 1   
    47    24    54 1   
    48    24    55 1   
    49    25    26 ar  
    50    25    33 ar  
    51    26    27 1   
    52    26    29 ar  
    53    27    28 1   
    54    27    56 1   
    55    27    57 1   
    56    28    58 1   
    57    28    59 1   
    58    29    30 ar  
    59    29    60 1   
    60    30    31 ar  
    61    30    61 1   
    62    31    32 1   
    63    31    33 ar  
    64    33    62 1   
@<TRIPOS>SUBSTRUCTURE
     1 M32         1 TEMP              0 ****  ****    0 ROOT
