@<TRIPOS>MOLECULE
M33
   42    44     1     0     0
SMALL
No Charge or Current Charge


@<TRIPOS>ATOM
      1 PB           3.2390     1.2050     1.3800 p5         1 M33       1.480400
      2 O1B          4.4160     0.4110     1.8470 o          1 M33      -0.857000
      3 O2B          3.5130     2.6660     1.2070 o          1 M33      -0.857000
      4 C3B          1.9260     1.0310     2.6520 c3         1 M33      -0.453100
      5 PA           3.3180     0.0880    -0.9880 p5         1 M33       1.455800
      6 O1A          3.8970    -1.2700    -0.7670 o          1 M33      -0.852500
      7 O2A          4.3410     1.0870    -1.4150 o          1 M33      -0.852500
      8 O3A          2.4110     0.5730     0.2010 os         1 M33      -0.707800
      9 O5           2.1610     0.0170    -2.1110 os         1 M33      -0.560400
     10 C5           1.3030    -1.1320    -2.2730 c3         1 M33       0.233600
     11 C4           0.4800    -1.4570    -0.9890 c5         1 M33       0.152300
     12 O4          -0.4110    -0.3730    -0.6530 os         1 M33      -0.404000
     13 C3          -0.5150    -2.6430    -1.1360 c5         1 M33       0.081300
     14 O3           0.1180    -3.9350    -1.1730 oh         1 M33      -0.694000
     15 C2          -1.3380    -2.4540     0.1730 c5         1 M33       0.090300
     16 O2          -0.6250    -3.0720     1.2530 oh         1 M33      -0.709000
     17 C1          -1.3910    -0.8780     0.2820 c5         1 M33       0.313300
     18 N9          -2.6690    -0.2240    -0.0020 na         1 M33      -0.294300
     19 C8          -3.6410    -0.6720    -0.9030 cc         1 M33       0.449700
     20 N7          -4.7190     0.1390    -0.9060 nd         1 M33      -0.582100
     21 C7          -4.3850     1.1200     0.0340 ca         1 M33      -0.089600
     22 C6          -5.1230     2.2450     0.4620 ca         1 M33       0.439900
     23 N6          -6.3570     2.5450    -0.0240 nv         1 M33      -1.077900
     24 N1          -4.6290     3.0920     1.3780 nb         1 M33      -0.323000
     25 C10         -3.3980     2.7960     1.8610 ca         1 M33       0.155900
     26 N3          -2.6220     1.7410     1.5110 nb         1 M33      -0.207000
     27 C9          -3.1460     0.9130     0.5860 ca         1 M33       0.103500
     28 H3B1         2.2780     1.4340     3.6080 hc         1 M33       0.023367
     29 H3B2         1.0300     1.5790     2.3400 hc         1 M33       0.023367
     30 H3B3         1.6710    -0.0260     2.7800 hc         1 M33       0.023367
     31 H5'1         0.6020    -0.9550    -3.0990 h1         1 M33       0.017700
     32 H5'2         1.9000    -2.0130    -2.5410 h1         1 M33       0.017700
     33 H4           1.1660    -1.6390    -0.1510 h1         1 M33       0.093700
     34 H3          -1.1500    -2.4960    -2.0220 h1         1 M33       0.051700
     35 HO3         -0.3630    -4.4860    -1.8360 ho         1 M33       0.495000
     36 H2          -2.3410    -2.8940     0.0840 h1         1 M33       0.052700
     37 HO2         -0.0630    -3.7470     0.7930 ho         1 M33       0.519000
     38 H1          -1.1170    -0.5780     1.3020 h2         1 M33       0.108700
     39 H8          -3.5110    -1.5610    -1.5110 h5         1 M33       0.109800
     40 HN61        -6.6460     2.0510    -0.8650 hn         1 M33       0.499000
     41 HN62        -6.6990     3.4950     0.0880 hn         1 M33       0.499000
     42 H6          -2.9880     3.4750     2.6060 h5         1 M33       0.030100
@<TRIPOS>BOND
     1     1     2 1   
     2     1     3 1   
     3     1     4 1   
     4     1     8 1   
     5     4    28 1   
     6     4    29 1   
     7     4    30 1   
     8     5     6 1   
     9     5     7 1   
    10     5     8 1   
    11     5     9 1   
    12     9    10 1   
    13    10    11 1   
    14    10    31 1   
    15    10    32 1   
    16    11    12 1   
    17    11    13 1   
    18    11    33 1   
    19    12    17 1   
    20    13    14 1   
    21    13    15 1   
    22    13    34 1   
    23    14    35 1   
    24    15    16 1   
    25    15    17 1   
    26    15    36 1   
    27    16    37 1   
    28    17    18 1   
    29    17    38 1   
    30    18    19 1   
    31    18    27 1   
    32    19    20 2   
    33    19    39 1   
    34    20    21 1   
    35    21    22 ar  
    36    21    27 ar  
    37    22    23 1   
    38    22    24 ar  
    39    23    40 1   
    40    23    41 1   
    41    24    25 ar  
    42    25    26 ar  
    43    25    42 1   
    44    26    27 ar  
@<TRIPOS>SUBSTRUCTURE
     1 M33         1 TEMP              0 ****  ****    0 ROOT
