@<TRIPOS>MOLECULE
M33
   42    44     1     0     0
SMALL
abcg2


@<TRIPOS>ATOM
      1 PB           5.3960     1.4930     0.3900 p5         1 M33       1.480400
      2 O1B          6.3660     0.7510    -0.4880 o          1 M33      -0.857000
      3 O2B          5.0220     2.9130     0.0650 o          1 M33      -0.857000
      4 C3B          5.9140     1.3870     2.1320 c3         1 M33      -0.453100
      5 PA           3.3700    -0.3050    -0.6950 p5         1 M33       1.455800
      6 O1A          3.9320    -1.6930    -0.6710 o          1 M33      -0.852500
      7 O2A          3.3180     0.4620    -1.9800 o          1 M33      -0.852500
      8 O3A          3.9920     0.5990     0.5120 os         1 M33      -0.707800
      9 O5           1.8570    -0.3370    -0.0230 os         1 M33      -0.560400
     10 C5           0.8640    -1.0530    -0.7160 c3         1 M33       0.233600
     11 C4          -0.1600    -1.5720     0.2630 c5         1 M33       0.152300
     12 O4          -0.8220    -0.4920     0.9230 os         1 M33      -0.404000
     13 C3          -1.2830    -2.3650    -0.4010 c5         1 M33       0.081300
     14 O3          -0.8970    -3.6980    -0.5830 oh         1 M33      -0.694000
     15 C2          -2.4220    -2.1830     0.6080 c5         1 M33       0.090300
     16 O2          -2.2340    -3.0040     1.7270 oh         1 M33      -0.709000
     17 C1          -2.1890    -0.7390     1.0470 c5         1 M33       0.313300
     18 N9          -2.9250     0.2000     0.2060 na         1 M33      -0.294300
     19 C8          -2.4640     0.9890    -0.8110 cc         1 M33       0.449700
     20 N7          -3.3930     1.7180    -1.3590 nd         1 M33      -0.582100
     21 C7          -4.5310     1.3960    -0.6690 ca         1 M33      -0.089600
     22 C6          -5.8660     1.8310    -0.7600 ca         1 M33       0.439900
     23 N6          -6.2720     2.7320    -1.6560 nv         1 M33      -1.077900
     24 N1          -6.7550     1.3090     0.0930 nb         1 M33      -0.323000
     25 C10         -6.3480     0.4070     0.9840 ca         1 M33       0.155900
     26 N3          -5.1330    -0.0790     1.1650 nb         1 M33      -0.207000
     27 C9          -4.2600     0.4530     0.3100 ca         1 M33       0.103500
     28 H3B1         6.8230     1.9730     2.2750 hc         1 M33       0.023367
     29 H3B2         5.1540     1.7860     2.8040 hc         1 M33       0.023367
     30 H3B3         6.1280     0.3600     2.4280 hc         1 M33       0.023367
     31 H5'1         0.3760    -0.4190    -1.4680 h1         1 M33       0.017700
     32 H5'2         1.2730    -1.9220    -1.2450 h1         1 M33       0.017700
     33 H4           0.3450    -2.1990     1.0080 h1         1 M33       0.093700
     34 H3          -1.5600    -1.8930    -1.3530 h1         1 M33       0.051700
     35 HO3         -1.4700    -4.0990    -1.2450 ho         1 M33       0.495000
     36 H2          -3.4140    -2.3250     0.1610 h1         1 M33       0.052700
     37 HO2         -1.8920    -3.8520     1.4160 ho         1 M33       0.519000
     38 H1          -2.5210    -0.5740     2.0760 h2         1 M33       0.108700
     39 H8          -1.4260     1.0000    -1.1030 h5         1 M33       0.109800
     40 HN61        -5.6230     3.1650    -2.2880 hn         1 M33       0.499000
     41 HN62        -7.2260     3.0470    -1.6610 hn         1 M33       0.499000
     42 H6          -7.1200     0.0260     1.6450 h5         1 M33       0.030100
@<TRIPOS>BOND
     1     1     2 1   
     2     1     3 1   
     3     1     4 1   
     4     1     8 1   
     5     4    28 1   
     6     4    29 1   
     7     4    30 1   
     8     5     6 1   
     9     5     7 1   
    10     5     8 1   
    11     5     9 1   
    12     9    10 1   
    13    10    11 1   
    14    10    31 1   
    15    10    32 1   
    16    11    12 1   
    17    11    13 1   
    18    11    33 1   
    19    12    17 1   
    20    13    14 1   
    21    13    15 1   
    22    13    34 1   
    23    14    35 1   
    24    15    16 1   
    25    15    17 1   
    26    15    36 1   
    27    16    37 1   
    28    17    18 1   
    29    17    38 1   
    30    18    19 1   
    31    18    27 1   
    32    19    20 2   
    33    19    39 1   
    34    20    21 1   
    35    21    22 ar  
    36    21    27 ar  
    37    22    23 1   
    38    22    24 ar  
    39    23    40 1   
    40    23    41 1   
    41    24    25 ar  
    42    25    26 ar  
    43    25    42 1   
    44    26    27 ar  
@<TRIPOS>SUBSTRUCTURE
     1 M33         1 TEMP              0 ****  ****    0 ROOT
