@<TRIPOS>MOLECULE
M34
   71    73     1     0     0
SMALL
No Charge or Current Charge


@<TRIPOS>ATOM
      1 C7          -4.9790     0.5820    -0.0750 c3         1 M34      -0.249100
      2 S8          -3.7530     0.7990     1.2300 s6         1 M34       1.172100
      3 C4          -5.5360     1.8850    -0.6340 ca         1 M34      -0.082300
      4 C5          -4.8870     2.5320    -1.7030 ca         1 M34      -0.085000
      5 C6          -5.4010     3.7340    -2.2200 ca         1 M34      -0.109500
      6 C1          -6.5670     4.2950    -1.6710 ca         1 M34      -0.100000
      7 C2          -7.2190     3.6520    -0.6050 ca         1 M34      -0.109500
      8 C34         -6.7050     2.4500    -0.0880 ca         1 M34      -0.085000
      9 O7          -4.3960     1.4230     2.3870 o          1 M34      -0.522500
     10 O19         -2.5110     1.3420     0.6790 o          1 M34      -0.522500
     11 N9          -3.4360    -0.7700     1.6910 n7         1 M34      -0.885300
     12 C10         -2.6730    -1.6760     0.7770 c3         1 M34       0.152500
     13 C20         -2.9980    -3.1500     1.1450 c3         1 M34      -0.069400
     14 C21         -4.4730    -3.5910     0.9190 c3         1 M34      -0.056700
     15 C22         -4.9050    -3.5100    -0.5660 c3         1 M34      -0.088600
     16 C23         -4.7130    -5.0120     1.4780 c3         1 M34      -0.088600
     17 C11         -1.1160    -1.4390     0.8130 c          1 M34       0.588100
     18 O24         -0.5790    -0.9530     1.8050 o          1 M34      -0.609100
     19 N12         -0.3310    -1.8280    -0.2970 n          1 M34      -0.383800
     20 C13          1.1530    -1.7050    -0.2990 c5         1 M34       0.025700
     21 C14          1.6770    -0.2510    -0.5290 c          1 M34       0.588100
     22 O28          1.0420     0.7240    -0.9080 o          1 M34      -0.569100
     23 C27          1.5200    -2.6000    -1.5220 c5         1 M34      -0.081400
     24 C26          0.3570    -2.3060    -2.5030 c5         1 M34      -0.093400
     25 C25         -0.8780    -2.3610    -1.5680 c5         1 M34       0.110000
     26 N15          3.0170    -0.1950    -0.2120 ns         1 M34      -0.505900
     27 C16          3.8370     1.0100    -0.3290 c3         1 M34       0.140300
     28 C17          5.3200     0.6810    -0.1890 ca         1 M34      -0.072300
     29 C29          6.0960     0.2340    -1.2920 ca         1 M34      -0.066300
     30 C35          5.4950     0.0520    -2.6860 c3         1 M34       0.196100
     31 N36          5.5030     1.3130    -3.4520 n8         1 M34      -0.992200
     32 C33          7.4630    -0.0580    -1.1010 ca         1 M34      -0.108000
     33 C32          8.0570     0.0860     0.1630 ca         1 M34      -0.100000
     34 C31          7.2880     0.5230     1.2500 ca         1 M34       0.120000
     35 Cl28         8.0290     0.7010     2.8360 cl         1 M34      -0.202000
     36 C30          5.9280     0.8190     1.0760 ca         1 M34      -0.098000
     37 H7          -5.7770    -0.0260     0.3640 h1         1 M34       0.097200
     38 H7A         -4.4910     0.0070    -0.8680 h1         1 M34       0.097200
     39 H5          -3.9840     2.1060    -2.1330 ha         1 M34       0.119000
     40 H6          -4.8960     4.2310    -3.0460 ha         1 M34       0.115000
     41 H1          -6.9650     5.2250    -2.0710 ha         1 M34       0.113000
     42 H2          -8.1220     4.0840    -0.1790 ha         1 M34       0.115000
     43 H34         -7.2150     1.9580     0.7380 ha         1 M34       0.119000
     44 HN9         -2.8610    -0.6000     2.5170 hn         1 M34       0.502000
     45 H10         -2.9920    -1.5140    -0.2580 h1         1 M34       0.083700
     46 H20         -2.3460    -3.8170     0.5690 hc         1 M34       0.050700
     47 H20A        -2.7340    -3.3070     2.1980 hc         1 M34       0.050700
     48 H21         -5.1220    -2.9120     1.4870 hc         1 M34       0.058700
     49 H22         -4.2430    -4.1140    -1.1990 hc         1 M34       0.033033
     50 H22A        -5.9290    -3.8830    -0.6900 hc         1 M34       0.033033
     51 H22B        -4.8870    -2.4780    -0.9320 hc         1 M34       0.033033
     52 H23         -4.4630    -5.0570     2.5450 hc         1 M34       0.033033
     53 H23A        -5.7650    -5.3000     1.3680 hc         1 M34       0.033033
     54 H23B        -4.0970    -5.7490     0.9500 hc         1 M34       0.033033
     55 H13          1.5930    -2.0930     0.6300 h1         1 M34       0.077700
     56 H27          2.5040    -2.3730    -1.9480 hc         1 M34       0.055700
     57 H27A         1.5310    -3.6600    -1.2380 hc         1 M34       0.055700
     58 H26          0.2950    -3.0350    -3.3190 hc         1 M34       0.064700
     59 H26A         0.4620    -1.3150    -2.9600 hc         1 M34       0.064700
     60 H25         -1.2310    -3.3920    -1.4370 h1         1 M34       0.049700
     61 H25A        -1.7010    -1.7530    -1.9650 h1         1 M34       0.049700
     62 HN15         3.4600    -1.0500     0.1020 hn         1 M34       0.311500
     63 H16          3.6440     1.4920    -1.2970 h1         1 M34       0.077700
     64 H16A         3.5360     1.7190     0.4540 h1         1 M34       0.077700
     65 H35          6.0770    -0.6960    -3.2420 h1         1 M34       0.034700
     66 H35A         4.4630    -0.3180    -2.6160 h1         1 M34       0.034700
     67 HN36         6.4760     1.6170    -3.5720 hn         1 M34       0.398500
     68 HN3A         5.1860     1.1230    -4.4100 hn         1 M34       0.398500
     69 H33          8.0680    -0.4000    -1.9380 ha         1 M34       0.113000
     70 H32          9.1110    -0.1420     0.3010 ha         1 M34       0.130000
     71 H30          5.3440     1.1540     1.9290 ha         1 M34       0.134000
@<TRIPOS>BOND
     1     1     2 1   
     2     1     3 1   
     3     1    37 1   
     4     1    38 1   
     5     2     9 2   
     6     2    10 2   
     7     2    11 1   
     8     3     4 ar  
     9     3     8 ar  
    10     4     5 ar  
    11     4    39 1   
    12     5     6 ar  
    13     5    40 1   
    14     6     7 ar  
    15     6    41 1   
    16     7     8 ar  
    17     7    42 1   
    18     8    43 1   
    19    11    12 1   
    20    11    44 1   
    21    12    13 1   
    22    12    17 1   
    23    12    45 1   
    24    13    14 1   
    25    13    46 1   
    26    13    47 1   
    27    14    15 1   
    28    14    16 1   
    29    14    48 1   
    30    15    49 1   
    31    15    50 1   
    32    15    51 1   
    33    16    52 1   
    34    16    53 1   
    35    16    54 1   
    36    17    18 2   
    37    17    19 1   
    38    19    20 1   
    39    19    25 1   
    40    20    21 1   
    41    20    23 1   
    42    20    55 1   
    43    21    22 2   
    44    21    26 1   
    45    23    24 1   
    46    23    56 1   
    47    23    57 1   
    48    24    25 1   
    49    24    58 1   
    50    24    59 1   
    51    25    60 1   
    52    25    61 1   
    53    26    27 1   
    54    26    62 1   
    55    27    28 1   
    56    27    63 1   
    57    27    64 1   
    58    28    29 ar  
    59    28    36 ar  
    60    29    30 1   
    61    29    32 ar  
    62    30    31 1   
    63    30    65 1   
    64    30    66 1   
    65    31    67 1   
    66    31    68 1   
    67    32    33 ar  
    68    32    69 1   
    69    33    34 ar  
    70    33    70 1   
    71    34    35 1   
    72    34    36 ar  
    73    36    71 1   
@<TRIPOS>SUBSTRUCTURE
     1 M34         1 TEMP              0 ****  ****    0 ROOT
