@<TRIPOS>MOLECULE
M34
   71    73     1     0     0
SMALL
abcg2


@<TRIPOS>ATOM
      1 C7          -5.0340     0.7510     0.1200 c3         1 M34      -0.249100
      2 S8          -3.3370     0.6330     0.6990 s6         1 M34       1.172100
      3 C4          -5.2960     2.1160    -0.4300 ca         1 M34      -0.082300
      4 C5          -5.0950     2.3780    -1.7830 ca         1 M34      -0.085000
      5 C6          -5.3250     3.6470    -2.2940 ca         1 M34      -0.109500
      6 C1          -5.7490     4.6680    -1.4550 ca         1 M34      -0.100000
      7 C2          -5.9440     4.4150    -0.1030 ca         1 M34      -0.109500
      8 C34         -5.7140     3.1460     0.4080 ca         1 M34      -0.085000
      9 O7          -3.1920     1.4930     1.8650 o          1 M34      -0.522500
     10 O19         -2.4620     0.8230    -0.4500 o          1 M34      -0.522500
     11 N9          -3.2500    -0.9390     1.2070 n7         1 M34      -0.885300
     12 C10         -2.5250    -1.8970     0.3960 c3         1 M34       0.152500
     13 C20         -2.8690    -3.3150     0.8620 c3         1 M34      -0.069400
     14 C21         -4.3560    -3.6640     0.7980 c3         1 M34      -0.056700
     15 C22         -4.9290    -3.4900    -0.6050 c3         1 M34      -0.088600
     16 C23         -4.5650    -5.0910     1.2930 c3         1 M34      -0.088600
     17 C11         -1.0160    -1.6710     0.4980 c          1 M34       0.588100
     18 O24         -0.5360    -1.1010     1.4680 o          1 M34      -0.609100
     19 N12         -0.2530    -2.1870    -0.4750 n          1 M34      -0.383800
     20 C13          1.1870    -2.0490    -0.4030 c5         1 M34       0.025700
     21 C14          1.5960    -0.5950    -0.6160 c          1 M34       0.588100
     22 O28          0.9570     0.1520    -1.3370 o          1 M34      -0.569100
     23 C27          1.6750    -2.9270    -1.5620 c5         1 M34      -0.081400
     24 C26          0.5590    -2.8110    -2.5930 c5         1 M34      -0.093400
     25 C25         -0.7090    -2.7460    -1.7460 c5         1 M34       0.110000
     26 N15          2.7440    -0.2470    -0.0120 ns         1 M34      -0.505900
     27 C16          3.3680     1.0510    -0.1810 c3         1 M34       0.140300
     28 C17          4.8620     0.9470    -0.0280 ca         1 M34      -0.072300
     29 C29          5.6620     0.3710    -1.0260 ca         1 M34      -0.066300
     30 C35          5.0820    -0.1140    -2.3290 c3         1 M34       0.196100
     31 N36          4.6190     1.0080    -3.1350 n8         1 M34      -0.992200
     32 C33          7.0320     0.2880    -0.8150 ca         1 M34      -0.108000
     33 C32          7.6270     0.7540     0.3500 ca         1 M34      -0.100000
     34 C31          6.8210     1.3180     1.3200 ca         1 M34       0.120000
     35 CL28         7.5290     1.9170     2.7860 cl         1 M34      -0.202000
     36 C30          5.4490     1.4150     1.1410 ca         1 M34      -0.098000
     37 H7          -5.6680     0.5120     0.9750 h1         1 M34       0.097200
     38 H7A         -5.1620    -0.0280    -0.6330 h1         1 M34       0.097200
     39 H5          -4.7710     1.5820    -2.4420 ha         1 M34       0.119000
     40 H6          -5.1750     3.8370    -3.3490 ha         1 M34       0.115000
     41 H1          -5.9330     5.6580    -1.8530 ha         1 M34       0.113000
     42 H2          -6.2750     5.2080     0.5550 ha         1 M34       0.115000
     43 H34         -5.8730     2.9520     1.4610 ha         1 M34       0.119000
     44 HN9         -3.0560    -0.9970     2.2010 hn         1 M34       0.502000
     45 H10         -2.8510    -1.7790    -0.6390 h1         1 M34       0.083700
     46 H20         -2.3090    -4.0260     0.2470 hc         1 M34       0.050700
     47 H20A        -2.5060    -3.4480     1.8870 hc         1 M34       0.050700
     48 H21         -4.8930    -2.9890     1.4710 hc         1 M34       0.058700
     49 H22         -4.3670    -4.0730    -1.3390 hc         1 M34       0.033033
     50 H22A        -5.9680    -3.8220    -0.6420 hc         1 M34       0.033033
     51 H22B        -4.9180    -2.4490    -0.9320 hc         1 M34       0.033033
     52 H23         -4.1820    -5.2230     2.3070 hc         1 M34       0.033033
     53 H23A        -5.6250    -5.3510     1.3040 hc         1 M34       0.033033
     54 H23B        -4.0550    -5.8120     0.6490 hc         1 M34       0.033033
     55 H13          1.5600    -2.4160     0.5560 h1         1 M34       0.077700
     56 H27          2.6500    -2.6210    -1.9410 hc         1 M34       0.055700
     57 H27A         1.7720    -3.9550    -1.2100 hc         1 M34       0.055700
     58 H26          0.5380    -3.6510    -3.2850 hc         1 M34       0.064700
     59 H26A         0.6670    -1.8980    -3.1780 hc         1 M34       0.064700
     60 H25         -1.1350    -3.7420    -1.6010 h1         1 M34       0.049700
     61 H25A        -1.4700    -2.1160    -2.2080 h1         1 M34       0.049700
     62 HN15         3.1550    -0.8790     0.6560 hn         1 M34       0.311500
     63 H16          3.1290     1.4220    -1.1770 h1         1 M34       0.077700
     64 H16A         2.9700     1.7660     0.5440 h1         1 M34       0.077700
     65 H35          5.8310    -0.7380    -2.8320 h1         1 M34       0.034700
     66 H35A         4.2290    -0.7670    -2.1350 h1         1 M34       0.034700
     67 HN36         5.4170     1.5200    -3.4870 hn         1 M34       0.398500
     68 HN3A         4.1270     0.6580    -3.9470 hn         1 M34       0.398500
     69 H33          7.6600    -0.1520    -1.5810 ha         1 M34       0.113000
     70 H32          8.6970     0.6790     0.4900 ha         1 M34       0.130000
     71 H30          4.8320     1.8590     1.9120 ha         1 M34       0.134000
@<TRIPOS>BOND
     1     1     2 1   
     2     1     3 1   
     3     1    37 1   
     4     1    38 1   
     5     2     9 2   
     6     2    10 2   
     7     2    11 1   
     8     3     4 ar  
     9     3     8 ar  
    10     4     5 ar  
    11     4    39 1   
    12     5     6 ar  
    13     5    40 1   
    14     6     7 ar  
    15     6    41 1   
    16     7     8 ar  
    17     7    42 1   
    18     8    43 1   
    19    11    12 1   
    20    11    44 1   
    21    12    13 1   
    22    12    17 1   
    23    12    45 1   
    24    13    14 1   
    25    13    46 1   
    26    13    47 1   
    27    14    15 1   
    28    14    16 1   
    29    14    48 1   
    30    15    49 1   
    31    15    50 1   
    32    15    51 1   
    33    16    52 1   
    34    16    53 1   
    35    16    54 1   
    36    17    18 2   
    37    17    19 1   
    38    19    20 1   
    39    19    25 1   
    40    20    21 1   
    41    20    23 1   
    42    20    55 1   
    43    21    22 2   
    44    21    26 1   
    45    23    24 1   
    46    23    56 1   
    47    23    57 1   
    48    24    25 1   
    49    24    58 1   
    50    24    59 1   
    51    25    60 1   
    52    25    61 1   
    53    26    27 1   
    54    26    62 1   
    55    27    28 1   
    56    27    63 1   
    57    27    64 1   
    58    28    29 ar  
    59    28    36 ar  
    60    29    30 1   
    61    29    32 ar  
    62    30    31 1   
    63    30    65 1   
    64    30    66 1   
    65    31    67 1   
    66    31    68 1   
    67    32    33 ar  
    68    32    69 1   
    69    33    34 ar  
    70    33    70 1   
    71    34    35 1   
    72    34    36 ar  
    73    36    71 1   
@<TRIPOS>SUBSTRUCTURE
     1 M34         1 TEMP              0 ****  ****    0 ROOT
