@<TRIPOS>MOLECULE
M35
   57    60     1     0     0
SMALL
bcc


@<TRIPOS>ATOM
      1 C1          -3.6760    -4.0700     0.8510 ca         1 M35      -0.090000
      2 F1          -5.3160     3.9740     0.1710 f          1 M35      -0.226633
      3 N1          -3.6600    -0.0200    -0.1630 na         1 M35       0.231300
      4 S1           5.4540    -1.6970     0.5510 sy         1 M35       1.084300
      5 C2          -2.9030    -3.1770     1.5820 ca         1 M35      -0.119000
      6 F2          -6.7750     2.4340    -0.2240 f          1 M35      -0.226633
      7 C3          -2.8810    -1.8310     1.2560 ca         1 M35      -0.109000
      8 F3          -5.6840     3.3410    -1.8470 f          1 M35      -0.226633
      9 N3          -5.5610    -5.8200    -0.3650 n8         1 M35      -0.890800
     10 O3          -0.9700    -0.7840    -1.0010 o          1 M35      -0.542100
     11 C4          -3.6400    -1.4000     0.1790 ca         1 M35      -0.005200
     12 F4           1.3180     2.4130     1.5590 f          1 M35      -0.144900
     13 O4           6.5580    -2.6050     0.8600 o          1 M35      -0.593300
     14 C5          -4.4210    -2.2780    -0.5510 ca         1 M35      -0.098000
     15 N5          -0.2960     1.2680    -0.2720 ns         1 M35      -0.469100
     16 O5           4.4080    -2.1790    -0.3450 o          1 M35      -0.593300
     17 C6          -4.4460    -3.6300    -0.2220 ca         1 M35      -0.075300
     18 N6          -4.8130     0.6210    -0.1770 nc         1 M35      -0.437800
     19 C7           1.0890     1.1090    -0.3770 ca         1 M35       0.038600
     20 C9           4.7190    -1.2060     2.0930 c3         1 M35      -0.224300
     21 C10         -4.5180     1.8740    -0.4530 cd         1 M35       0.184600
     22 C11         -5.5830     2.9020    -0.5850 c3         1 M35       0.660600
     23 C12         -3.1400     2.0620    -0.6110 cd         1 M35      -0.229300
     24 C13         -2.6130     0.8070    -0.4170 cc         1 M35      -0.168900
     25 C14          3.2780     1.6440     0.5290 ca         1 M35      -0.139000
     26 C15          6.0210     1.9880    -1.0650 ca         1 M35      -0.137000
     27 C16          3.8880     0.9060    -0.4800 cp         1 M35      -0.082000
     28 C17          5.3720     0.8690    -0.5540 cp         1 M35       0.054000
     29 C18          3.0940     0.2940    -1.4420 ca         1 M35      -0.065000
     30 C20         -5.2780    -4.5760    -1.0520 c3         1 M35       0.196100
     31 C21          6.1630    -0.2010    -0.1200 ca         1 M35      -0.242500
     32 C22          1.7140     0.4010    -1.4010 ca         1 M35      -0.110000
     33 C23          7.4050     2.0430    -1.1540 ca         1 M35      -0.076000
     34 C24          7.5490    -0.1500    -0.2000 ca         1 M35      -0.041000
     35 C26          8.1710     0.9730    -0.7230 ca         1 M35      -0.141000
     36 C44          1.9030     1.7190     0.5720 ca         1 M35       0.082900
     37 H1          -3.6910    -5.1170     1.1200 ha         1 M35       0.158000
     38 H2          -2.3210    -3.5320     2.4220 ha         1 M35       0.140000
     39 H3          -2.2970    -1.1310     1.8400 ha         1 M35       0.142000
     40 HN3         -6.2410    -5.6600     0.3670 hn         1 M35       0.344300
     41 HN3A        -5.9940    -6.4650    -1.0120 hn         1 M35       0.344300
     42 H5          -5.0090    -1.9090    -1.3830 ha         1 M35       0.149000
     43 HN5         -0.6240     2.1010     0.1940 hn         1 M35       0.339500
     44 H9           3.9130    -0.4990     1.9170 h1         1 M35       0.104367
     45 H9A          4.3220    -2.1110     2.5540 h1         1 M35       0.104367
     46 H9B          5.4830    -0.7650     2.7280 h1         1 M35       0.104367
     47 H12         -2.6140     2.9670    -0.8680 ha         1 M35       0.179000
     48 H14          3.8630     2.1430     1.2920 ha         1 M35       0.154000
     49 H15          5.4280     2.8270    -1.4050 ha         1 M35       0.141000
     50 H18          3.5540    -0.2580    -2.2490 ha         1 M35       0.161000
     51 H20         -4.7170    -4.8150    -1.9610 h1         1 M35       0.041200
     52 H20A        -6.1740    -4.0390    -1.3910 h1         1 M35       0.041200
     53 H22          1.1270    -0.0620    -2.1790 ha         1 M35       0.166000
     54 H23          7.8800     2.9250    -1.5610 ha         1 M35       0.138000
     55 H24          8.1470    -0.9810     0.1460 ha         1 M35       0.166000
     56 H26          9.2500     1.0070    -0.7870 ha         1 M35       0.142000
     57 C8          -1.2210     0.3290    -0.5910 c          1 M35       0.711700
@<TRIPOS>BOND
     1     1     5 ar  
     2     1    17 ar  
     3     1    37 1   
     4     2    22 1   
     5     3    11 1   
     6     3    18 1   
     7     3    24 1   
     8     4    13 2   
     9     4    16 2   
    10     4    20 1   
    11     4    31 1   
    12     5     7 ar  
    13     5    38 1   
    14     6    22 1   
    15     7    11 ar  
    16     7    39 1   
    17     8    22 1   
    18     9    30 1   
    19     9    40 1   
    20     9    41 1   
    21    10    57 2   
    22    11    14 ar  
    23    12    36 1   
    24    14    17 ar  
    25    14    42 1   
    26    15    19 1   
    27    15    43 1   
    28    15    57 1   
    29    17    30 1   
    30    18    21 2   
    31    19    32 ar  
    32    19    36 ar  
    33    20    44 1   
    34    20    45 1   
    35    20    46 1   
    36    21    22 1   
    37    21    23 1   
    38    23    24 2   
    39    23    47 1   
    40    24    57 1   
    41    25    27 ar  
    42    25    36 ar  
    43    25    48 1   
    44    26    28 ar  
    45    26    33 ar  
    46    26    49 1   
    47    27    28 1   
    48    27    29 ar  
    49    28    31 ar  
    50    29    32 ar  
    51    29    50 1   
    52    30    51 1   
    53    30    52 1   
    54    31    34 ar  
    55    32    53 1   
    56    33    35 ar  
    57    33    54 1   
    58    34    35 ar  
    59    34    55 1   
    60    35    56 1   
@<TRIPOS>SUBSTRUCTURE
     1 M35         1 TEMP              0 ****  ****    0 ROOT
