@<TRIPOS>MOLECULE
M35
   57    60     1     0     0
SMALL
No Charge or Current Charge


@<TRIPOS>ATOM
      1 C1          -4.3630    -4.6260     0.0220 ca         1 M35      -0.072000
      2 F1          -4.3730     3.9000     0.9940 f          1 M35      -0.105333
      3 N1          -3.7880    -0.4670     0.3520 na         1 M35       0.282000
      4 S1           6.0200    -0.2640     1.7770 sy         1 M35       1.053500
      5 C2          -3.7470    -4.0900     1.1670 ca         1 M35      -0.101000
      6 F2          -5.7670     2.7100     2.1600 f          1 M35      -0.105333
      7 C3          -3.5540    -2.7030     1.2780 ca         1 M35      -0.091000
      8 F3          -6.0840     2.9770     0.0240 f          1 M35      -0.105333
      9 N3          -6.8830    -4.6490    -2.0250 n8         1 M35      -1.001200
     10 O3          -0.9870    -1.5620    -0.2130 o          1 M35      -0.542100
     11 C4          -3.9740    -1.8450     0.2430 ca         1 M35      -0.005200
     12 F4           1.2830     2.9060     0.1840 f          1 M35      -0.180000
     13 O4           7.2340    -0.6140     2.5270 o          1 M35      -0.522500
     14 C5          -4.5960    -2.3860    -0.9000 ca         1 M35      -0.080000
     15 N5          -0.2120     0.5980     0.0050 ns         1 M35      -0.143000
     16 O5           4.9060    -1.2150     1.6850 o          1 M35      -0.522500
     17 C6          -4.7920    -3.7770    -1.0180 ca         1 M35      -0.075300
     18 N6          -4.8710     0.3370     0.6110 nc         1 M35      -0.437800
     19 C7           1.1970     0.5470    -0.2050 ca         1 M35      -0.054000
     20 C9           5.3630     1.2170     2.5490 c3         1 M35      -0.335100
     21 C10         -4.3080     1.5330     0.6890 cd         1 M35       0.119300
     22 C11         -5.1330     2.7810     0.9670 c3         1 M35       0.296700
     23 C12         -2.9020     1.4780     0.4900 cd         1 M35      -0.146000
     24 C13         -2.5550     0.1650     0.2680 cc         1 M35      -0.219600
     25 C14          3.3140     1.7740    -0.2940 ca         1 M35      -0.121000
     26 C15          5.9170     1.0650    -2.1090 ca         1 M35      -0.119000
     27 C16          4.0260     0.5860    -0.5770 cp         1 M35      -0.082000
     28 C17          5.4940     0.6250    -0.8320 cp         1 M35       0.054000
     29 C18          3.2900    -0.6140    -0.7130 ca         1 M35      -0.047000
     30 C20         -5.4540    -4.3600    -2.2590 c3         1 M35       0.196100
     31 C21          6.5110     0.2730     0.1100 ca         1 M35      -0.242500
     32 C22          1.8970    -0.6400    -0.5210 ca         1 M35      -0.092000
     33 C23          7.2770     1.1500    -2.4490 ca         1 M35      -0.058000
     34 C24          7.8790     0.3660    -0.2280 ca         1 M35      -0.023000
     35 C26          8.2570     0.8010    -1.5080 ca         1 M35      -0.123000
     36 C44          1.9250     1.7500    -0.1010 ca         1 M35       0.118000
     37 H1          -4.5120    -5.7010    -0.0570 ha         1 M35       0.140000
     38 H2          -3.4200    -4.7500     1.9670 ha         1 M35       0.122000
     39 H3          -3.0780    -2.2930     2.1670 ha         1 M35       0.124000
     40 HN3         -7.3660    -3.7680    -1.8160 hn         1 M35       0.399500
     41 HN3A        -7.3090    -4.9570    -2.9080 hn         1 M35       0.399500
     42 H5          -4.9250    -1.7230    -1.6980 ha         1 M35       0.131000
     43 HN5         -0.5570     1.5290     0.1990 hn         1 M35       0.173000
     44 H9           4.4450     1.5060     2.0340 h1         1 M35       0.104367
     45 H9A          5.1530     0.9850     3.5970 h1         1 M35       0.104367
     46 H9B          6.1190     2.0050     2.4720 h1         1 M35       0.104367
     47 H12         -2.2370     2.3370     0.5090 ha         1 M35       0.161000
     48 H14          3.8480     2.7180    -0.2190 ha         1 M35       0.136000
     49 H15          5.1690     1.3430    -2.8480 ha         1 M35       0.123000
     50 H18          3.8120    -1.5350    -0.9640 ha         1 M35       0.143000
     51 H20         -4.9450    -5.2910    -2.5470 h1         1 M35       0.041200
     52 H20A        -5.3660    -3.6530    -3.0960 h1         1 M35       0.041200
     53 H22          1.3860    -1.5920    -0.6270 ha         1 M35       0.148000
     54 H23          7.5700     1.4910    -3.4390 ha         1 M35       0.120000
     55 H24          8.6520     0.1040     0.4930 ha         1 M35       0.148000
     56 H26          9.3100     0.8700    -1.7690 ha         1 M35       0.124000
     57 C8          -1.2010    -0.3760    -0.0030 c          1 M35       0.644700
@<TRIPOS>BOND
     1     1     5 ar  
     2     1    17 ar  
     3     1    37 1   
     4     2    22 1   
     5     3    11 1   
     6     3    18 1   
     7     3    24 1   
     8     4    13 2   
     9     4    16 2   
    10     4    20 1   
    11     4    31 1   
    12     5     7 ar  
    13     5    38 1   
    14     6    22 1   
    15     7    11 ar  
    16     7    39 1   
    17     8    22 1   
    18     9    30 1   
    19     9    40 1   
    20     9    41 1   
    21    10    57 2   
    22    11    14 ar  
    23    12    36 1   
    24    14    17 ar  
    25    14    42 1   
    26    15    19 1   
    27    15    43 1   
    28    15    57 1   
    29    17    30 1   
    30    18    21 2   
    31    19    32 ar  
    32    19    36 ar  
    33    20    44 1   
    34    20    45 1   
    35    20    46 1   
    36    21    22 1   
    37    21    23 1   
    38    23    24 2   
    39    23    47 1   
    40    24    57 1   
    41    25    27 ar  
    42    25    36 ar  
    43    25    48 1   
    44    26    28 ar  
    45    26    33 ar  
    46    26    49 1   
    47    27    28 1   
    48    27    29 ar  
    49    28    31 ar  
    50    29    32 ar  
    51    29    50 1   
    52    30    51 1   
    53    30    52 1   
    54    31    34 ar  
    55    32    53 1   
    56    33    35 ar  
    57    33    54 1   
    58    34    35 ar  
    59    34    55 1   
    60    35    56 1   
@<TRIPOS>SUBSTRUCTURE
     1 M35         1 TEMP              0 ****  ****    0 ROOT
