@<TRIPOS>MOLECULE
M36
   74    77     1     0     0
SMALL
bcc


@<TRIPOS>ATOM
      1 O16         -3.7130     2.0670     0.7530 o          1 M36      -0.608100
      2 C10         -2.9510     1.1160     0.5250 c          1 M36       0.637300
      3 C9          -3.4970    -0.2060     0.3000 ca         1 M36      -0.394600
      4 C14         -4.8950    -0.4380     0.3370 ca         1 M36       0.301100
      5 O17         -5.7380     0.5540     0.5870 oh         1 M36      -0.509100
      6 C13         -5.4090    -1.7100     0.1020 ca         1 M36      -0.255800
      7 C26         -6.8300    -2.0050     0.0480 ce         1 M36      -0.036200
      8 C25         -7.2390    -3.2710    -0.0070 c2         1 M36      -0.245200
      9 C24         -6.2570    -4.4050     0.0590 c6         1 M36       0.214000
     10 C28         -6.0810    -4.8690     1.5020 c3         1 M36      -0.097100
     11 C27         -6.6790    -5.5530    -0.8430 c3         1 M36      -0.097100
     12 O23         -4.9680    -3.9810    -0.4450 os         1 M36      -0.322900
     13 C12         -4.5130    -2.7570    -0.1680 ca         1 M36       0.265100
     14 C11         -3.1400    -2.5630    -0.2140 ca         1 M36      -0.262000
     15 C8          -2.6610    -1.2870     0.0190 ca         1 M36       0.256100
     16 O7          -1.3320    -1.1210    -0.0230 os         1 M36      -0.211200
     17 C5          -1.4970     1.2400     0.4650 ca         1 M36      -0.259600
     18 C4          -0.7600     0.0810     0.1960 ca         1 M36       0.208100
     19 C3           0.6250     0.0660     0.1270 ca         1 M36      -0.271000
     20 C6          -0.7790     2.4510     0.6770 ca         1 M36       0.040700
     21 C15         -1.4590     3.7830     0.9150 c3         1 M36       0.007100
     22 C19         -1.9200     4.3750    -0.3860 c2         1 M36      -0.158200
     23 C20         -1.4840     5.4930    -0.9730 c2         1 M36      -0.110400
     24 C21         -0.4270     6.4080    -0.4320 c3         1 M36      -0.053400
     25 C22         -2.0550     5.9330    -2.2910 c3         1 M36      -0.053400
     26 C1           0.6010     2.4370     0.6030 ca         1 M36       0.021100
     27 O38          1.3170     3.5820     0.7480 os         1 M36      -0.315900
     28 C39          1.8720     3.7860     2.0420 c3         1 M36       0.121700
     29 C2           1.3130     1.2440     0.3360 ca         1 M36       0.209100
     30 O18          2.6370     1.3580     0.2960 os         1 M36      -0.299900
     31 C29          3.4290     0.1970     0.0570 c3         1 M36       0.132400
     32 C30          4.8870     0.5790     0.1790 c3         1 M36      -0.083400
     33 C31          5.7960    -0.6150    -0.0910 c3         1 M36      -0.074400
     34 C32          7.2650    -0.3030     0.1580 c3         1 M36      -0.079400
     35 C33          8.1880    -1.4820    -0.1300 c3         1 M36      -0.053400
     36 C34          9.6430    -1.1680     0.1760 c3         1 M36      -0.204400
     37 C35         10.6540    -2.3000    -0.0760 c          1 M36       0.927600
     38 O37         11.8560    -2.0070     0.1020 o          1 M36      -0.847300
     39 O36         10.2120    -3.4120    -0.4270 o          1 M36      -0.847300
     40 H1          -5.1900     1.3740     0.7050 ho         1 M36       0.489000
     41 H2          -7.5430    -1.1920     0.0330 ha         1 M36       0.147000
     42 H3          -8.2920    -3.5220    -0.0620 ha         1 M36       0.136000
     43 H4          -7.0360    -5.2100     1.9030 hc         1 M36       0.048033
     44 H5          -5.3720    -5.6960     1.5650 hc         1 M36       0.048033
     45 H6          -5.7260    -4.0560     2.1370 hc         1 M36       0.048033
     46 H7          -6.8110    -5.2170    -1.8720 hc         1 M36       0.048033
     47 H8          -5.9420    -6.3560    -0.8290 hc         1 M36       0.048033
     48 H9          -7.6280    -5.9640    -0.4990 hc         1 M36       0.048033
     49 H10         -2.4670    -3.3830    -0.4250 ha         1 M36       0.171000
     50 H11          1.1260    -0.8660    -0.0930 ha         1 M36       0.166000
     51 H12         -2.3090     3.6520     1.5810 hc         1 M36       0.066700
     52 H13         -0.7720     4.4560     1.4200 hc         1 M36       0.066700
     53 H14         -2.6880     3.8060    -0.9000 ha         1 M36       0.125000
     54 H15          0.4100     6.4740    -1.1320 hc         1 M36       0.037033
     55 H16         -0.8210     7.4220    -0.3270 hc         1 M36       0.037033
     56 H17         -0.0250     6.1040     0.5310 hc         1 M36       0.037033
     57 H18         -2.4770     6.9380    -2.2190 hc         1 M36       0.037033
     58 H19         -1.2750     5.9790    -3.0560 hc         1 M36       0.037033
     59 H20         -2.8370     5.2630    -2.6480 hc         1 M36       0.037033
     60 H21          1.1000     3.7690     2.8160 h1         1 M36       0.036367
     61 H22          2.6300     3.0390     2.2840 h1         1 M36       0.036367
     62 H23          2.3370     4.7700     2.0350 h1         1 M36       0.036367
     63 H24          3.1840    -0.5810     0.7890 h1         1 M36       0.041200
     64 H25          3.2110    -0.2010    -0.9400 h1         1 M36       0.041200
     65 H26          5.1190     1.3860    -0.5210 hc         1 M36       0.052700
     66 H27          5.0750     0.9640     1.1860 hc         1 M36       0.052700
     67 H28          5.4940    -1.4560     0.5430 hc         1 M36       0.037200
     68 H29          5.6620    -0.9500    -1.1250 hc         1 M36       0.037200
     69 H30          7.5660     0.5550    -0.4540 hc         1 M36       0.027200
     70 H31          7.3930     0.0120     1.2000 hc         1 M36       0.027200
     71 H32          7.8630    -2.3460     0.4560 hc         1 M36       0.038700
     72 H33          8.0810    -1.7740    -1.1790 hc         1 M36       0.038700
     73 H34          9.9610    -0.2900    -0.3980 hc         1 M36       0.015700
     74 H35          9.7350    -0.8630     1.2260 hc         1 M36       0.015700
@<TRIPOS>BOND
     1     1     2 2   
     2     2     3 1   
     3     2    17 1   
     4     3     4 ar  
     5     3    15 ar  
     6     4     5 1   
     7     4     6 ar  
     8     5    40 1   
     9     6     7 1   
    10     6    13 ar  
    11     7     8 2   
    12     7    41 1   
    13     8     9 1   
    14     8    42 1   
    15     9    10 1   
    16     9    11 1   
    17     9    12 1   
    18    10    43 1   
    19    10    44 1   
    20    10    45 1   
    21    11    46 1   
    22    11    47 1   
    23    11    48 1   
    24    12    13 1   
    25    13    14 ar  
    26    14    15 ar  
    27    14    49 1   
    28    15    16 1   
    29    16    18 1   
    30    17    18 ar  
    31    17    20 ar  
    32    18    19 ar  
    33    19    29 ar  
    34    19    50 1   
    35    20    21 1   
    36    20    26 ar  
    37    21    22 1   
    38    21    51 1   
    39    21    52 1   
    40    22    23 2   
    41    22    53 1   
    42    23    24 1   
    43    23    25 1   
    44    24    54 1   
    45    24    55 1   
    46    24    56 1   
    47    25    57 1   
    48    25    58 1   
    49    25    59 1   
    50    26    27 1   
    51    26    29 ar  
    52    27    28 1   
    53    28    60 1   
    54    28    61 1   
    55    28    62 1   
    56    29    30 1   
    57    30    31 1   
    58    31    32 1   
    59    31    63 1   
    60    31    64 1   
    61    32    33 1   
    62    32    65 1   
    63    32    66 1   
    64    33    34 1   
    65    33    67 1   
    66    33    68 1   
    67    34    35 1   
    68    34    69 1   
    69    34    70 1   
    70    35    36 1   
    71    35    71 1   
    72    35    72 1   
    73    36    37 1   
    74    36    73 1   
    75    36    74 1   
    76    37    38 1   
    77    37    39 1   
@<TRIPOS>SUBSTRUCTURE
     1 M36         1 TEMP              0 ****  ****    0 ROOT
