@<TRIPOS>MOLECULE
M36
   74    77     1     0     0
SMALL
No Charge or Current Charge


@<TRIPOS>ATOM
      1 O16         -3.8520     2.0430     0.1050 o          1 M36      -0.608100
      2 C10         -3.0930     1.0840     0.1620 c          1 M36       0.637300
      3 C9          -3.6650    -0.2880     0.0310 ca         1 M36      -0.394600
      4 C14         -5.0510    -0.5370     0.0320 ca         1 M36       0.301100
      5 O17         -5.9240     0.4960     0.1480 oh         1 M36      -0.548100
      6 C13         -5.5430    -1.8490    -0.0900 ca         1 M36      -0.255800
      7 C26         -6.9930    -2.1650    -0.1260 ce         1 M36      -0.086200
      8 C25         -7.3990    -3.4460    -0.0640 c2         1 M36      -0.295200
      9 C24         -6.4000    -4.5810     0.1010 c6         1 M36       0.237200
     10 C28         -6.2620    -4.9460     1.6020 c3         1 M36      -0.097100
     11 C27         -6.8390    -5.8250    -0.7110 c3         1 M36      -0.097100
     12 O23         -5.0850    -4.2110    -0.3730 os         1 M36      -0.346100
     13 C12         -4.6360    -2.9150    -0.2200 ca         1 M36       0.265100
     14 C11         -3.2630    -2.6680    -0.2480 ca         1 M36      -0.244000
     15 C8          -2.7830    -1.3630    -0.1150 ca         1 M36       0.256100
     16 O7          -1.4320    -1.1630    -0.1490 os         1 M36      -0.211200
     17 C5          -1.5950     1.2150     0.3110 ca         1 M36      -0.259600
     18 C4          -0.8410     0.0470     0.1110 ca         1 M36       0.208100
     19 C3           0.5510     0.0620     0.1720 ca         1 M36      -0.253000
     20 C6          -0.9080     2.4330     0.6230 ca         1 M36       0.040700
     21 C15         -1.6500     3.7490     0.9280 c3         1 M36       0.007100
     22 C19         -1.9280     4.5640    -0.3300 c2         1 M36      -0.208200
     23 C20         -1.4690     5.7860    -0.6670 c2         1 M36      -0.110400
     24 C21         -0.5310     6.6590     0.1560 c3         1 M36      -0.053400
     25 C22         -1.8550     6.4540    -1.9750 c3         1 M36      -0.053400
     26 C1           0.5180     2.4530     0.6650 ca         1 M36       0.021100
     27 O38          1.1180     3.6860     0.9330 os         1 M36      -0.339100
     28 C39          2.5320     3.9550     0.9110 c3         1 M36       0.144900
     29 C2           1.2510     1.2510     0.4350 ca         1 M36       0.209100
     30 O18          2.6350     1.2420     0.4850 os         1 M36      -0.323100
     31 C29          3.4280     0.0650     0.2590 c3         1 M36       0.155600
     32 C30          4.9070     0.4740     0.3920 c3         1 M36      -0.083400
     33 C31          5.8800    -0.7050     0.1700 c3         1 M36      -0.074400
     34 C32          7.3640    -0.2970     0.3040 c3         1 M36      -0.079400
     35 C33          8.3380    -1.4760     0.0830 c3         1 M36      -0.053400
     36 C34          9.8260    -1.0690     0.2160 c3         1 M36      -0.204400
     37 C35         10.7340    -2.2910    -0.0170 c          1 M36       0.717000
     38 O37         11.0880    -2.5370    -1.1600 o          1 M36      -0.742000
     39 O36         11.0220    -2.9870     0.9450 o          1 M36      -0.742000
     40 H1          -5.3520     1.3080     0.1520 ho         1 M36       0.528000
     41 H2          -7.7020    -1.3360    -0.2130 ha         1 M36       0.197000
     42 H3          -8.4570    -3.7100    -0.0920 ha         1 M36       0.186000
     43 H4          -7.2180    -5.2920     2.0140 hc         1 M36       0.048033
     44 H5          -5.5260    -5.7440     1.7530 hc         1 M36       0.048033
     45 H6          -5.9430    -4.0800     2.1930 hc         1 M36       0.048033
     46 H7          -6.9360    -5.5840    -1.7760 hc         1 M36       0.048033
     47 H8          -6.1110    -6.6390    -0.6170 hc         1 M36       0.048033
     48 H9          -7.8080    -6.2040    -0.3660 hc         1 M36       0.048033
     49 H10         -2.5690    -3.4930    -0.3690 ha         1 M36       0.153000
     50 H11          1.0710    -0.8750     0.0040 ha         1 M36       0.148000
     51 H12         -2.5840     3.5570     1.4650 hc         1 M36       0.066700
     52 H13         -1.0960     4.3320     1.6680 hc         1 M36       0.066700
     53 H14         -2.5950     4.0460    -1.0190 ha         1 M36       0.175000
     54 H15          0.3890     6.8750    -0.4020 hc         1 M36       0.037033
     55 H16         -1.0020     7.6190     0.3970 hc         1 M36       0.037033
     56 H17         -0.2270     6.2050     1.1030 hc         1 M36       0.037033
     57 H18         -2.3670     7.4080    -1.7960 hc         1 M36       0.037033
     58 H19         -0.9700     6.6600    -2.5900 hc         1 M36       0.037033
     59 H20         -2.5290     5.8280    -2.5710 hc         1 M36       0.037033
     60 H21          3.0530     3.3840     1.6890 h1         1 M36       0.036367
     61 H22          2.9620     3.7130    -0.0690 h1         1 M36       0.036367
     62 H23          2.7130     5.0200     1.1030 h1         1 M36       0.036367
     63 H24          3.1940    -0.7100     1.0000 h1         1 M36       0.041200
     64 H25          3.2480    -0.3370    -0.7470 h1         1 M36       0.041200
     65 H26          5.1260     1.2660    -0.3350 hc         1 M36       0.052700
     66 H27          5.0720     0.8960     1.3910 hc         1 M36       0.052700
     67 H28          5.6570    -1.4970     0.8960 hc         1 M36       0.037200
     68 H29          5.7110    -1.1290    -0.8280 hc         1 M36       0.037200
     69 H30          7.5860     0.4950    -0.4220 hc         1 M36       0.027200
     70 H31          7.5320     0.1260     1.3020 hc         1 M36       0.027200
     71 H32          8.1150    -2.2680     0.8080 hc         1 M36       0.038700
     72 H33          8.1690    -1.9000    -0.9150 hc         1 M36       0.038700
     73 H34         10.0000    -0.3090    -0.5560 hc         1 M36       0.015700
     74 H35          9.9440    -0.6930     1.2400 hc         1 M36       0.015700
@<TRIPOS>BOND
     1     1     2 2   
     2     2     3 1   
     3     2    17 1   
     4     3     4 ar  
     5     3    15 ar  
     6     4     5 1   
     7     4     6 ar  
     8     5    40 1   
     9     6     7 1   
    10     6    13 ar  
    11     7     8 2   
    12     7    41 1   
    13     8     9 1   
    14     8    42 1   
    15     9    10 1   
    16     9    11 1   
    17     9    12 1   
    18    10    43 1   
    19    10    44 1   
    20    10    45 1   
    21    11    46 1   
    22    11    47 1   
    23    11    48 1   
    24    12    13 1   
    25    13    14 ar  
    26    14    15 ar  
    27    14    49 1   
    28    15    16 1   
    29    16    18 1   
    30    17    18 ar  
    31    17    20 ar  
    32    18    19 ar  
    33    19    29 ar  
    34    19    50 1   
    35    20    21 1   
    36    20    26 ar  
    37    21    22 1   
    38    21    51 1   
    39    21    52 1   
    40    22    23 2   
    41    22    53 1   
    42    23    24 1   
    43    23    25 1   
    44    24    54 1   
    45    24    55 1   
    46    24    56 1   
    47    25    57 1   
    48    25    58 1   
    49    25    59 1   
    50    26    27 1   
    51    26    29 ar  
    52    27    28 1   
    53    28    60 1   
    54    28    61 1   
    55    28    62 1   
    56    29    30 1   
    57    30    31 1   
    58    31    32 1   
    59    31    63 1   
    60    31    64 1   
    61    32    33 1   
    62    32    65 1   
    63    32    66 1   
    64    33    34 1   
    65    33    67 1   
    66    33    68 1   
    67    34    35 1   
    68    34    69 1   
    69    34    70 1   
    70    35    36 1   
    71    35    71 1   
    72    35    72 1   
    73    36    37 1   
    74    36    73 1   
    75    36    74 1   
    76    37    38 1   
    77    37    39 1   
@<TRIPOS>SUBSTRUCTURE
     1 M36         1 TEMP              0 ****  ****    0 ROOT
