@<TRIPOS>MOLECULE
M37
   56    59     1     0     0
SMALL
bcc


@<TRIPOS>ATOM
      1 C1          -1.5500     3.6820     1.3670 ca         1 M37      -0.106000
      2 F1          -7.3480    -0.5710    -0.3550 f          1 M37      -0.225967
      3 N1          -3.4940     0.1410     0.3020 na         1 M37       0.204300
      4 S1           5.4710    -0.6320     1.6440 sy         1 M37       1.295200
      5 C2          -1.4350     2.5560     2.1730 ca         1 M37      -0.117000
      6 F2          -6.9560    -2.1420     1.0620 f          1 M37      -0.225967
      7 N2           4.2920     0.4400     2.0170 n8         1 M37      -0.936700
      8 C3          -2.0910     1.3910     1.8180 ca         1 M37      -0.114000
      9 F3          -6.6950    -2.5130    -1.0390 f          1 M37      -0.225967
     10 N3          -5.1300     2.9600    -1.1690 n8         1 M37      -0.881800
     11 O3          -1.1170    -2.5230     0.2560 o          1 M37      -0.551100
     12 C4          -2.8440     1.3600     0.6500 ca         1 M37      -0.030200
     13 F4           0.5570     1.9040    -0.8740 f          1 M37      -0.149900
     14 O4           6.6450    -0.3940     2.4720 o          1 M37      -0.618800
     15 C5          -2.9660     2.4700    -0.1830 ca         1 M37      -0.049300
     16 N5          -0.6820    -0.4170    -0.4980 ns         1 M37      -0.463100
     17 O5           4.8780    -1.9600     1.6390 o          1 M37      -0.618800
     18 C6          -2.3150     3.6360     0.2130 ca         1 M37      -0.099000
     19 N6          -4.8130     0.0920     0.2840 nc         1 M37      -0.446800
     20 C7           0.7110    -0.4200    -0.5950 ca         1 M37       0.041600
     21 C9          -3.7920     2.4570    -1.4430 c3         1 M37       0.196100
     22 C10         -5.1140    -1.1600     0.0020 cd         1 M37       0.178600
     23 C11         -6.5350    -1.5910    -0.0840 c3         1 M37       0.661600
     24 C12         -3.9720    -1.9500    -0.1460 cd         1 M37      -0.189300
     25 C13         -2.9320    -1.0720     0.0450 cc         1 M37      -0.171900
     26 C14          2.6950     0.9470    -0.9270 ca         1 M37      -0.113000
     27 C15          5.4190     0.3100    -2.3040 ca         1 M37      -0.141000
     28 C16          3.5050    -0.1820    -0.8360 cp         1 M37      -0.071000
     29 C17          4.9670    -0.0360    -1.0330 cp         1 M37       0.066000
     30 C18          2.9060    -1.4190    -0.6440 ca         1 M37      -0.087000
     31 C21          5.9240    -0.1990    -0.0250 ca         1 M37      -0.244500
     32 C22          1.5290    -1.5460    -0.5300 ca         1 M37      -0.128000
     33 C23          6.7700     0.4690    -2.5750 ca         1 M37      -0.076000
     34 C24          7.2790    -0.0380    -0.2880 ca         1 M37      -0.040000
     35 C26          7.7030     0.2890    -1.5660 ca         1 M37      -0.144000
     36 C44          1.3350     0.8100    -0.7970 ca         1 M37       0.069900
     37 H1          -1.0430     4.5970     1.6400 ha         1 M37       0.141000
     38 H2          -0.8440     2.5860     3.0780 ha         1 M37       0.142000
     39 HN2          3.4480     0.0180     2.3820 hn         1 M37       0.435800
     40 HN2A         4.6030     1.2410     2.5520 hn         1 M37       0.435800
     41 H3          -2.0300     0.5110     2.4450 ha         1 M37       0.151000
     42 HN3         -5.6330     3.0490    -2.0430 hn         1 M37       0.352300
     43 HN5         -1.1220     0.4500    -0.7670 hn         1 M37       0.338500
     44 H6          -2.3970     4.5170    -0.4110 ha         1 M37       0.148000
     45 H9          -3.7740     1.4580    -1.8970 h1         1 M37       0.036700
     46 H12         -3.9030    -2.9990    -0.3820 ha         1 M37       0.194000
     47 H14          3.1190     1.9310    -1.0810 ha         1 M37       0.155000
     48 H15          4.6920     0.4460    -3.0940 ha         1 M37       0.139000
     49 H18          3.5130    -2.3120    -0.6080 ha         1 M37       0.165000
     50 H22          1.1020    -2.5260    -0.3990 ha         1 M37       0.175000
     51 H23          7.0900     0.7320    -3.5740 ha         1 M37       0.137000
     52 H24          8.0090    -0.1580     0.4990 ha         1 M37       0.162000
     53 H26          8.7590     0.4090    -1.7660 ha         1 M37       0.140000
     54 H181        -5.6330     2.2700    -0.6250 hn         1 M37       0.352300
     55 H19         -3.3180     3.1240    -2.1640 h1         1 M37       0.036700
     56 C8          -1.4860    -1.4050    -0.0420 c          1 M37       0.717700
@<TRIPOS>BOND
     1     1     5 ar  
     2     1    18 ar  
     3     1    37 1   
     4     2    23 1   
     5     3    12 1   
     6     3    19 1   
     7     3    25 1   
     8     4     7 1   
     9     4    14 2   
    10     4    17 2   
    11     4    31 1   
    12     5     8 ar  
    13     5    38 1   
    14     6    23 1   
    15     7    39 1   
    16     7    40 1   
    17     8    12 ar  
    18     8    41 1   
    19     9    23 1   
    20    10    21 1   
    21    10    42 1   
    22    10    54 1   
    23    11    56 2   
    24    12    15 ar  
    25    13    36 1   
    26    15    18 ar  
    27    15    21 1   
    28    16    20 1   
    29    16    43 1   
    30    16    56 1   
    31    18    44 1   
    32    19    22 2   
    33    20    32 ar  
    34    20    36 ar  
    35    21    45 1   
    36    21    55 1   
    37    22    23 1   
    38    22    24 1   
    39    24    25 2   
    40    24    46 1   
    41    25    56 1   
    42    26    28 ar  
    43    26    36 ar  
    44    26    47 1   
    45    27    29 ar  
    46    27    33 ar  
    47    27    48 1   
    48    28    29 1   
    49    28    30 ar  
    50    29    31 ar  
    51    30    32 ar  
    52    30    49 1   
    53    31    34 ar  
    54    32    50 1   
    55    33    35 ar  
    56    33    51 1   
    57    34    35 ar  
    58    34    52 1   
    59    35    53 1   
@<TRIPOS>SUBSTRUCTURE
     1 M37         1 TEMP              0 ****  ****    0 ROOT
