@<TRIPOS>MOLECULE
M37
   56    59     1     0     0
SMALL
No Charge or Current Charge


@<TRIPOS>ATOM
      1 C1          -1.4520     3.3720     1.7680 ca         1 M37      -0.088000
      2 F1          -7.5790    -0.7860    -0.6700 f          1 M37      -0.104667
      3 N1          -3.6420     0.0910     0.2890 na         1 M37       0.255000
      4 S1           5.3400     0.1830     1.6710 sy         1 M37       1.153600
      5 C2          -1.5440     2.1860     2.5120 ca         1 M37      -0.099000
      6 F2          -7.2370    -1.7930     1.2280 f          1 M37      -0.104667
      7 N2           4.7420     1.6940     1.7580 n8         1 M37      -1.047100
      8 C3          -2.2790     1.1000     2.0100 ca         1 M37      -0.096000
      9 F3          -6.8640    -2.8370    -0.6400 f          1 M37      -0.104667
     10 N3          -4.9270     2.8570    -1.2350 n8         1 M37      -0.992200
     11 O3          -1.4260    -2.4920    -1.1830 o          1 M37      -0.551100
     12 C4          -2.9220     1.1900     0.7580 ca         1 M37      -0.030200
     13 F4           0.6280     1.9780    -0.4000 f          1 M37      -0.185000
     14 O4           6.4620     0.2170     2.6050 o          1 M37      -0.548000
     15 C5          -2.8260     2.3850     0.0020 ca         1 M37      -0.049300
     16 N5          -0.7410    -0.4240    -0.4350 ns         1 M37      -0.137000
     17 O5           4.1680    -0.6530     1.9150 o          1 M37      -0.548000
     18 C6          -2.0900     3.4710     0.5200 ca         1 M37      -0.081000
     19 N6          -5.0020     0.0530     0.4860 nc         1 M37      -0.446800
     20 C7           0.6740    -0.4050    -0.6020 ca         1 M37      -0.051000
     21 C9          -3.4970     2.5250    -1.3650 c3         1 M37       0.196100
     22 C10         -5.3140    -1.1340    -0.0130 cd         1 M37       0.113300
     23 C11         -6.7490    -1.6380    -0.0240 c3         1 M37       0.297700
     24 C12         -4.1740    -1.8280    -0.4970 cd         1 M37      -0.106000
     25 C13         -3.0740    -1.0330    -0.3020 cc         1 M37      -0.222600
     26 C14          2.7300     0.9190    -0.7140 ca         1 M37      -0.095000
     27 C15          5.4850    -0.3120    -2.3920 ca         1 M37      -0.123000
     28 C16          3.5060    -0.2490    -0.8880 cp         1 M37      -0.071000
     29 C17          4.9830    -0.1710    -1.0760 cp         1 M37       0.066000
     30 C18          2.8390    -1.4940    -0.9320 ca         1 M37      -0.069000
     31 C21          5.9350     0.0460    -0.0320 ca         1 M37      -0.244500
     32 C22          1.4420    -1.5770    -0.7840 ca         1 M37      -0.110000
     33 C23          6.8590    -0.2300    -2.6710 ca         1 M37      -0.058000
     34 C24          7.3150     0.1340    -0.3100 ca         1 M37      -0.022000
     35 C26          7.7730    -0.0030    -1.6300 ca         1 M37      -0.126000
     36 C44          1.3370     0.8390    -0.5650 ca         1 M37       0.105000
     37 H1          -0.8850     4.2150     2.1560 ha         1 M37       0.123000
     38 H2          -1.0500     2.1100     3.4780 ha         1 M37       0.124000
     39 HN2          3.8090     1.4830     2.1030 hn         1 M37       0.491000
     40 HN2A         5.2140     2.0170     2.6000 hn         1 M37       0.491000
     41 H3          -2.3520     0.1850     2.5960 ha         1 M37       0.133000
     42 HN3         -5.3650     2.8200    -2.1630 hn         1 M37       0.407500
     43 HN5         -1.1180     0.4370    -0.0620 hn         1 M37       0.172000
     44 H6          -2.0120     4.3950    -0.0480 ha         1 M37       0.130000
     45 H9          -3.3990     1.5860    -1.9280 h1         1 M37       0.036700
     46 H12         -4.1760    -2.8180    -0.9450 ha         1 M37       0.176000
     47 H14          3.2140     1.8920    -0.6980 ha         1 M37       0.137000
     48 H15          4.7880    -0.4800    -3.2100 ha         1 M37       0.121000
     49 H18          3.4170    -2.4050    -1.0730 ha         1 M37       0.147000
     50 H22          0.9810    -2.5600    -0.8000 ha         1 M37       0.157000
     51 H23          7.2150    -0.3390    -3.6930 ha         1 M37       0.119000
     52 H24          8.0340     0.3030     0.4900 ha         1 M37       0.144000
     53 H26          8.8370     0.0620    -1.8450 ha         1 M37       0.122000
     54 H181        -5.3810     2.0910    -0.7190 hn         1 M37       0.407500
     55 H19         -3.0030     3.3160    -1.9470 h1         1 M37       0.036700
     56 C8          -1.6900    -1.4070    -0.6800 c          1 M37       0.650700
@<TRIPOS>BOND
     1     1     5 ar  
     2     1    18 ar  
     3     1    37 1   
     4     2    23 1   
     5     3    12 1   
     6     3    19 1   
     7     3    25 1   
     8     4     7 1   
     9     4    14 2   
    10     4    17 2   
    11     4    31 1   
    12     5     8 ar  
    13     5    38 1   
    14     6    23 1   
    15     7    39 1   
    16     7    40 1   
    17     8    12 ar  
    18     8    41 1   
    19     9    23 1   
    20    10    21 1   
    21    10    42 1   
    22    10    54 1   
    23    11    56 2   
    24    12    15 ar  
    25    13    36 1   
    26    15    18 ar  
    27    15    21 1   
    28    16    20 1   
    29    16    43 1   
    30    16    56 1   
    31    18    44 1   
    32    19    22 2   
    33    20    32 ar  
    34    20    36 ar  
    35    21    45 1   
    36    21    55 1   
    37    22    23 1   
    38    22    24 1   
    39    24    25 2   
    40    24    46 1   
    41    25    56 1   
    42    26    28 ar  
    43    26    36 ar  
    44    26    47 1   
    45    27    29 ar  
    46    27    33 ar  
    47    27    48 1   
    48    28    29 1   
    49    28    30 ar  
    50    29    31 ar  
    51    30    32 ar  
    52    30    49 1   
    53    31    34 ar  
    54    32    50 1   
    55    33    35 ar  
    56    33    51 1   
    57    34    35 ar  
    58    34    52 1   
    59    35    53 1   
@<TRIPOS>SUBSTRUCTURE
     1 M37         1 TEMP              0 ****  ****    0 ROOT
