@<TRIPOS>MOLECULE
M38
   39    42     1     0     0
SMALL
abcg2


@<TRIPOS>ATOM
      1 C1           3.4380     4.7850     5.6690 ca         1 M38      -0.127000
      2 C2           4.2640     5.7790     6.1440 ca         1 M38      -0.080000
      3 C3           5.0880     6.5040     5.2760 ca         1 M38      -0.154000
      4 C4           5.0740     6.2220     3.9290 ca         1 M38      -0.041000
      5 C5           4.2420     5.2140     3.4290 ca         1 M38      -0.184600
      6 C6           3.4130     4.4840     4.2970 ca         1 M38       0.074200
      7 C7           2.5880     3.4820     3.7060 cc         1 M38      -0.309400
      8 C8           2.6220     3.2340     2.3570 cd         1 M38       0.205400
      9 C9           4.2620     4.9440     1.9910 c          1 M38       0.572600
     10 N10          3.4500     3.9030     1.5240 n          1 M38      -0.255000
     11 C11          1.6230     2.5770     4.3290 c          1 M38       0.619900
     12 C12          1.0560     1.7640     3.2180 ca         1 M38      -0.168600
     13 C13          1.6450     2.1620     2.0120 ca         1 M38      -0.059800
     14 C14          0.0940     0.7870     3.2870 ca         1 M38      -0.058000
     15 C15         -0.3080     0.1740     2.0970 ca         1 M38      -0.113000
     16 C16          0.2530     0.5670     0.8960 ca         1 M38      -0.096000
     17 C17          1.2310     1.5660     0.8350 ca         1 M38      -0.060000
     18 O18          1.3200     2.4800     5.4990 o          1 M38      -0.530100
     19 O19          1.6730     4.4790    -4.3270 o          1 M38      -0.734000
     20 O20          0.6840     5.4140    -2.5640 o          1 M38      -0.734000
     21 O21          4.9520     5.5710     1.2080 o          1 M38      -0.525000
     22 C22          3.5220     3.6010     0.0920 c3         1 M38       0.069000
     23 C23          2.4820     4.3590    -0.7200 c3         1 M38      -0.074400
     24 C24          1.5460     4.6960    -3.1040 c          1 M38       0.720000
     25 C25          2.5610     3.9840    -2.1900 c3         1 M38      -0.209400
     26 H1           2.8060     4.2390     6.3530 ha         1 M38       0.134000
     27 H2           4.2730     6.0030     7.2020 ha         1 M38       0.104000
     28 H3           5.7320     7.2830     5.6630 ha         1 M38       0.109000
     29 H4           5.7090     6.7760     3.2510 ha         1 M38       0.131000
     30 H14         -0.3430     0.5040     4.2350 ha         1 M38       0.126000
     31 H15         -1.0620    -0.6010     2.1150 ha         1 M38       0.112000
     32 H16         -0.0670     0.0970    -0.0250 ha         1 M38       0.122000
     33 H17          1.6150     1.8350    -0.1360 ha         1 M38       0.150000
     34 H221         3.4330     2.5230    -0.0250 h1         1 M38       0.057200
     35 H222         4.5230     3.8550    -0.2450 h1         1 M38       0.057200
     36 H231         1.4810     4.1540    -0.3350 hc         1 M38       0.057700
     37 H232         2.6460     5.4310    -0.5940 hc         1 M38       0.057700
     38 H251         2.4170     2.9020    -2.3060 hc         1 M38       0.017200
     39 H252         3.5700     4.1780    -2.5710 hc         1 M38       0.017200
@<TRIPOS>BOND
     1     1     2 ar  
     2     1     6 ar  
     3     1    26 1   
     4     2     3 ar  
     5     2    27 1   
     6     3     4 ar  
     7     3    28 1   
     8     4     5 ar  
     9     4    29 1   
    10     5     6 ar  
    11     5     9 1   
    12     6     7 1   
    13     7     8 2   
    14     7    11 1   
    15     8    10 1   
    16     8    13 1   
    17     9    10 1   
    18     9    21 2   
    19    10    22 1   
    20    11    12 1   
    21    11    18 2   
    22    12    13 ar  
    23    12    14 ar  
    24    13    17 ar  
    25    14    15 ar  
    26    14    30 1   
    27    15    16 ar  
    28    15    31 1   
    29    16    17 ar  
    30    16    32 1   
    31    17    33 1   
    32    19    24 1   
    33    20    24 1   
    34    22    23 1   
    35    22    34 1   
    36    22    35 1   
    37    23    25 1   
    38    23    36 1   
    39    23    37 1   
    40    24    25 1   
    41    25    38 1   
    42    25    39 1   
@<TRIPOS>SUBSTRUCTURE
     1 M38         1 TEMP              0 ****  ****    0 ROOT
