@<TRIPOS>MOLECULE
M39
   41    44     1     0     0
SMALL
No Charge or Current Charge


@<TRIPOS>ATOM
      1 O10         -4.3090    -0.5040    -0.4060 o          1 M39      -0.514000
      2 C9          -3.3280     0.2180    -0.2860 c          1 M39       0.627600
      3 C3          -3.3840     1.6660    -0.2160 cc         1 M39      -0.329600
      4 C4          -4.4710     2.4850    -0.2660 cd         1 M39      -0.080000
      5 N5          -3.9160     3.7670    -0.1530 na         1 M39       0.016800
      6 N1          -2.5190     3.7370    -0.0360 nd         1 M39      -0.505800
      7 C2          -2.2550     2.4530    -0.0800 cc         1 M39       0.492000
      8 N6          -0.9950     1.9420     0.0000 nc         1 M39      -0.701700
      9 N8          -2.0260    -0.2610    -0.1980 n          1 M39      -0.265500
     10 C19         -1.6780    -1.6550    -0.2270 ca         1 M39       0.014600
     11 C20         -1.4170    -2.2710    -1.4670 ca         1 M39      -0.079000
     12 C21         -1.0880    -3.6350    -1.5250 ca         1 M39      -0.111000
     13 C22         -1.0270    -4.3910    -0.3440 ca         1 M39      -0.093000
     14 C23         -1.2990    -3.7850     0.8940 ca         1 M39      -0.111000
     15 C24         -1.6300    -2.4170     0.9640 ca         1 M39      -0.040300
     16 C25         -1.9290    -1.7800     2.3170 c3         1 M39      -0.050800
     17 C7          -0.9390     0.6140    -0.0630 cd         1 M39       0.535800
     18 S11          0.6870    -0.1120     0.0370 ss         1 M39      -0.226200
     19 C12          1.8210     1.3330     0.2410 c3         1 M39       0.099900
     20 C13          3.2640     0.8650     0.3510 ca         1 M39      -0.062300
     21 C18          4.0410     0.6760    -0.8100 ca         1 M39      -0.136000
     22 C17          5.3710     0.2380    -0.7030 ca         1 M39       0.171000
     23 F26          6.1090     0.0600    -1.8200 f          1 M39      -0.178000
     24 C14          3.8340     0.6060     1.6140 ca         1 M39      -0.109000
     25 C15          5.1670     0.1680     1.7170 ca         1 M39      -0.085000
     26 C16          5.9370    -0.0160     0.5550 ca         1 M39      -0.144000
     27 H1          -5.5340     2.2850    -0.3660 h4         1 M39       0.171000
     28 H2          -4.4320     4.6460    -0.1510 hn         1 M39       0.378000
     29 H3          -1.4650    -1.6880    -2.3840 ha         1 M39       0.125000
     30 H4          -0.8810    -4.1040    -2.4840 ha         1 M39       0.119000
     31 H5          -0.7720    -5.4480    -0.3880 ha         1 M39       0.115000
     32 H6          -1.2530    -4.3840     1.8010 ha         1 M39       0.116000
     33 H7          -2.9400    -1.3560     2.3380 hc         1 M39       0.048700
     34 H8          -1.8620    -2.5070     3.1340 hc         1 M39       0.048700
     35 H9          -1.2200    -0.9730     2.5380 hc         1 M39       0.048700
     36 H10          1.7100     2.0040    -0.6210 h1         1 M39       0.091700
     37 H11          1.5370     1.8900     1.1430 h1         1 M39       0.091700
     38 H12          3.6170     0.8660    -1.7920 ha         1 M39       0.137000
     39 H13          3.2430     0.7430     2.5170 ha         1 M39       0.122000
     40 H14          5.6010    -0.0300     2.6950 ha         1 M39       0.120000
     41 H15          6.9670    -0.3550     0.6280 ha         1 M39       0.133000
@<TRIPOS>BOND
     1     1     2 2   
     2     2     3 1   
     3     2     9 1   
     4     3     4 2   
     5     3     7 1   
     6     4     5 1   
     7     4    27 1   
     8     5     6 1   
     9     5    28 1   
    10     6     7 2   
    11     7     8 1   
    12     8    17 2   
    13     9    10 1   
    14     9    17 1   
    15    10    11 ar  
    16    10    15 ar  
    17    11    12 ar  
    18    11    29 1   
    19    12    13 ar  
    20    12    30 1   
    21    13    14 ar  
    22    13    31 1   
    23    14    15 ar  
    24    14    32 1   
    25    15    16 1   
    26    16    33 1   
    27    16    34 1   
    28    16    35 1   
    29    17    18 1   
    30    18    19 1   
    31    19    20 1   
    32    19    36 1   
    33    19    37 1   
    34    20    21 ar  
    35    20    24 ar  
    36    21    22 ar  
    37    21    38 1   
    38    22    23 1   
    39    22    26 ar  
    40    24    25 ar  
    41    24    39 1   
    42    25    26 ar  
    43    25    40 1   
    44    26    41 1   
@<TRIPOS>SUBSTRUCTURE
     1 M39         1 TEMP              0 ****  ****    0 ROOT
