@<TRIPOS>MOLECULE
M39
   41    44     1     0     0
SMALL
abcg2


@<TRIPOS>ATOM
      1 O10         -4.1140    -0.6760    -0.3290 o          1 M39      -0.514000
      2 C9          -3.2330     0.1540    -0.2480 c          1 M39       0.627600
      3 C3          -3.3730     1.5770    -0.1960 cc         1 M39      -0.329600
      4 C4          -4.4460     2.4500    -0.2220 cd         1 M39      -0.080000
      5 N5          -3.9070     3.6640    -0.1380 na         1 M39       0.016800
      6 N1          -2.5730     3.6820    -0.0570 nd         1 M39      -0.505800
      7 C2          -2.2390     2.4070    -0.0920 cc         1 M39       0.492000
      8 N6          -0.9590     1.9450    -0.0340 nc         1 M39      -0.701700
      9 N8          -1.8830    -0.2320    -0.1860 n          1 M39      -0.265500
     10 C19         -1.6010    -1.6350    -0.2320 ca         1 M39       0.014600
     11 C20         -1.3670    -2.2250    -1.4640 ca         1 M39      -0.079000
     12 C21         -1.0840    -3.5790    -1.5350 ca         1 M39      -0.111000
     13 C22         -1.0440    -4.3280    -0.3670 ca         1 M39      -0.093000
     14 C23         -1.2860    -3.7250     0.8600 ca         1 M39      -0.111000
     15 C24         -1.5720    -2.3660     0.9550 ca         1 M39      -0.040300
     16 C25         -1.8310    -1.7180     2.2810 c3         1 M39      -0.050800
     17 C7          -0.8400     0.6680    -0.0820 cd         1 M39       0.535800
     18 S11          0.7470    -0.0800    -0.0060 ss         1 M39      -0.226200
     19 C12          1.7980     1.3930     0.2160 c3         1 M39       0.099900
     20 C13          3.2040     0.8910     0.3470 ca         1 M39      -0.062300
     21 C18          3.9630     0.6420    -0.7940 ca         1 M39      -0.136000
     22 C17          5.2470     0.1560    -0.6490 ca         1 M39       0.171000
     23 F26          5.9740    -0.0750    -1.7540 f          1 M39      -0.178000
     24 C14          3.7490     0.6360     1.6020 ca         1 M39      -0.109000
     25 C15          5.0430     0.1480     1.7170 ca         1 M39      -0.085000
     26 C16          5.8090    -0.1000     0.5870 ca         1 M39      -0.144000
     27 H1          -5.5100     2.2930    -0.2900 h4         1 M39       0.171000
     28 H2          -4.4110     4.5380    -0.1300 hn         1 M39       0.378000
     29 H3          -1.4050    -1.6200    -2.3620 ha         1 M39       0.125000
     30 H4          -0.8970    -4.0450    -2.4930 ha         1 M39       0.119000
     31 H5          -0.8240    -5.3870    -0.4090 ha         1 M39       0.115000
     32 H6          -1.2520    -4.3210     1.7630 ha         1 M39       0.116000
     33 H7          -2.8290    -1.2800     2.3260 hc         1 M39       0.048700
     34 H8          -1.7540    -2.4460     3.0870 hc         1 M39       0.048700
     35 H9          -1.1150    -0.9210     2.4860 hc         1 M39       0.048700
     36 H10          1.6760     2.0510    -0.6430 h1         1 M39       0.091700
     37 H11          1.4770     1.9230     1.1110 h1         1 M39       0.091700
     38 H12          3.5590     0.8310    -1.7810 ha         1 M39       0.137000
     39 H13          3.1620     0.8250     2.4920 ha         1 M39       0.122000
     40 H14          5.4620    -0.0430     2.6960 ha         1 M39       0.120000
     41 H15          6.8180    -0.4820     0.6650 ha         1 M39       0.133000
@<TRIPOS>BOND
     1     1     2 2   
     2     2     3 1   
     3     2     9 1   
     4     3     4 2   
     5     3     7 1   
     6     4     5 1   
     7     4    27 1   
     8     5     6 1   
     9     5    28 1   
    10     6     7 2   
    11     7     8 1   
    12     8    17 2   
    13     9    10 1   
    14     9    17 1   
    15    10    11 ar  
    16    10    15 ar  
    17    11    12 ar  
    18    11    29 1   
    19    12    13 ar  
    20    12    30 1   
    21    13    14 ar  
    22    13    31 1   
    23    14    15 ar  
    24    14    32 1   
    25    15    16 1   
    26    16    33 1   
    27    16    34 1   
    28    16    35 1   
    29    17    18 1   
    30    18    19 1   
    31    19    20 1   
    32    19    36 1   
    33    19    37 1   
    34    20    21 ar  
    35    20    24 ar  
    36    21    22 ar  
    37    21    38 1   
    38    22    23 1   
    39    22    26 ar  
    40    24    25 ar  
    41    24    39 1   
    42    25    26 ar  
    43    25    40 1   
    44    26    41 1   
@<TRIPOS>SUBSTRUCTURE
     1 M39         1 TEMP              0 ****  ****    0 ROOT
