@<TRIPOS>MOLECULE
M3A
   37    39     1     0     0
SMALL
bcc


@<TRIPOS>ATOM
      1 C4          -3.1320     0.7470    -0.0500 ca         1 M3A       0.213600
      2 C5          -0.8010    -0.1130    -0.0990 cc         1 M3A       0.860900
      3 C6           0.1490    -1.9810    -0.0420 cd         1 M3A       0.779400
      4 N1          -1.7630     0.8550    -0.1200 nu         1 M3A      -0.732300
      5 C8           4.4680     0.3590    -0.0830 ca         1 M3A       0.074600
      6 N2          -1.0520    -1.4390    -0.0410 nc         1 M3A      -0.819000
      7 C9           5.4690    -0.6110    -0.1360 ca         1 M3A      -0.163000
      8 C10          6.8010    -0.2190    -0.1010 ca         1 M3A      -0.101500
      9 C11          7.1590     1.1180    -0.0170 ca         1 M3A      -0.148000
     10 C12          6.1590     2.0800     0.0320 ca         1 M3A      -0.101500
     11 N3           0.4020    -3.2870    -0.0250 nv         1 M3A      -0.950500
     12 C13          4.8260     1.7070     0.0000 ca         1 M3A      -0.163000
     13 C14         -3.8300    -0.4670     0.0140 ca         1 M3A      -0.189000
     14 C15         -5.2090    -0.4670     0.0830 ca         1 M3A      -0.054000
     15 N4           1.0870    -0.9920    -0.1010 n          1 M3A      -0.109500
     16 N           -8.4990     0.7030     0.2210 n1         1 M3A      -0.374800
     17 C           -7.3470     0.7150     0.1610 cg         1 M3A       0.243800
     18 O            3.0030    -2.2040    -0.0270 o          1 M3A      -0.615100
     19 C1          -5.9270     0.7290     0.0880 ca         1 M3A      -0.065000
     20 C2          -5.2360     1.9420     0.0210 ca         1 M3A      -0.054000
     21 C3          -3.8620     1.9480    -0.0470 ca         1 M3A      -0.189000
     22 N5           3.0950     0.0870    -0.1180 ns         1 M3A      -0.450100
     23 N6           0.4600     0.2270    -0.1370 nd         1 M3A      -0.647800
     24 H1          -1.3980     1.7940    -0.1710 hn         1 M3A       0.455800
     25 H2           5.2310    -1.6590    -0.2050 ha         1 M3A       0.147500
     26 H3           7.5670    -0.9820    -0.1420 ha         1 M3A       0.133500
     27 H4           8.2010     1.4060     0.0090 ha         1 M3A       0.136000
     28 H5           6.4120     3.1300     0.0960 ha         1 M3A       0.133500
     29 H6          -0.3650    -3.9080     0.1700 hn         1 M3A       0.464800
     30 H7           1.3360    -3.6250     0.1270 hn         1 M3A       0.464800
     31 H8           4.0550     2.4670     0.0410 ha         1 M3A       0.147500
     32 H9          -3.2960    -1.4030     0.0110 ha         1 M3A       0.154500
     33 H10         -5.7340    -1.4110     0.1340 ha         1 M3A       0.142000
     34 H11         -5.7760     2.8790     0.0240 ha         1 M3A       0.142000
     35 H12         -3.3370     2.8940    -0.0980 ha         1 M3A       0.154500
     36 H13          2.4820     0.8920    -0.1410 hn         1 M3A       0.358500
     37 C7           2.4790    -1.1080    -0.0790 c          1 M3A       0.719900
@<TRIPOS>BOND
     1     1     4 1   
     2     1    13 ar  
     3     1    21 ar  
     4     2     4 1   
     5     2     6 1   
     6     2    23 2   
     7     3     6 2   
     8     3    11 1   
     9     3    15 1   
    10     4    24 1   
    11     5     7 ar  
    12     5    12 ar  
    13     5    22 1   
    14     7     8 ar  
    15     7    25 1   
    16     8     9 ar  
    17     8    26 1   
    18     9    10 ar  
    19     9    27 1   
    20    10    12 ar  
    21    10    28 1   
    22    11    29 1   
    23    11    30 1   
    24    12    31 1   
    25    13    14 ar  
    26    13    32 1   
    27    14    19 ar  
    28    14    33 1   
    29    15    23 1   
    30    15    37 1   
    31    16    17 3   
    32    17    19 1   
    33    18    37 2   
    34    19    20 ar  
    35    20    21 ar  
    36    20    34 1   
    37    21    35 1   
    38    22    36 1   
    39    22    37 1   
@<TRIPOS>SUBSTRUCTURE
     1 M3A         1 TEMP              0 ****  ****    0 ROOT
