@<TRIPOS>MOLECULE
M3A
   37    39     1     0     0
SMALL
No Charge or Current Charge


@<TRIPOS>ATOM
      1 C4          -3.2460     0.7240     0.2090 ca         1 M3A       0.352000
      2 C5          -0.8590    -0.0130     0.1070 cc         1 M3A       0.860900
      3 C6           0.0930    -1.7160    -0.2850 cd         1 M3A       0.779400
      4 N1          -1.8650     0.8350     0.3100 nu         1 M3A      -0.925900
      5 C8           4.6280     0.3740    -0.0270 ca         1 M3A      -0.018000
      6 N2          -1.1190    -1.3060    -0.1470 nc         1 M3A      -0.819000
      7 C9           5.5930    -0.6310    -0.2630 ca         1 M3A      -0.145000
      8 C10          6.9640    -0.3180    -0.2480 ca         1 M3A      -0.083500
      9 C11          7.3850     0.9980     0.0010 ca         1 M3A      -0.130000
     10 C12          6.4340     2.0030     0.2350 ca         1 M3A      -0.083500
     11 N3           0.2380    -3.0040    -0.5860 nv         1 M3A      -1.060900
     12 C13          5.0640     1.6910     0.2200 ca         1 M3A      -0.145000
     13 C14         -3.9390    -0.3720     0.7510 ca         1 M3A      -0.171000
     14 C15         -5.3400    -0.4510     0.6550 ca         1 M3A      -0.036000
     15 N4           1.0770    -0.7680    -0.1230 n          1 M3A      -0.109500
     16 N           -8.6560     0.4510    -0.1600 n1         1 M3A      -0.464000
     17 C           -7.4920     0.5030    -0.0810 cg         1 M3A       0.333000
     18 O            2.9350    -2.1310    -0.3980 o          1 M3A      -0.615100
     19 C1          -6.0600     0.5780     0.0190 ca         1 M3A      -0.065000
     20 C2          -5.3700     1.6850    -0.5120 ca         1 M3A      -0.036000
     21 C3          -3.9690     1.7550    -0.4110 ca         1 M3A      -0.171000
     22 N5           3.2250     0.1340    -0.0280 ns         1 M3A      -0.124000
     23 N6           0.3780     0.4170     0.1410 nd         1 M3A      -0.647800
     24 H1          -1.4990     1.7770     0.2570 hn         1 M3A       0.511000
     25 H2           5.3050    -1.6580    -0.4610 ha         1 M3A       0.129500
     26 H3           7.7010    -1.0980    -0.4300 ha         1 M3A       0.115500
     27 H4           8.4460     1.2370     0.0120 ha         1 M3A       0.118000
     28 H5           6.7580     3.0240     0.4280 ha         1 M3A       0.115500
     29 H6          -0.5460    -3.5880    -0.3260 hn         1 M3A       0.520000
     30 H7           1.1680    -3.3890    -0.4460 hn         1 M3A       0.520000
     31 H8           4.3370     2.4800     0.4030 ha         1 M3A       0.129500
     32 H9          -3.3940    -1.1640     1.2560 ha         1 M3A       0.136500
     33 H10         -5.8620    -1.3080     1.0770 ha         1 M3A       0.124000
     34 H11         -5.9160     2.4900    -1.0010 ha         1 M3A       0.124000
     35 H12         -3.4460     2.6130    -0.8230 ha         1 M3A       0.136500
     36 H13          2.6620     0.9600     0.1300 hn         1 M3A       0.192000
     37 C7           2.4650    -1.0120    -0.2030 c          1 M3A       0.652900
@<TRIPOS>BOND
     1     1     4 1   
     2     1    13 ar  
     3     1    21 ar  
     4     2     4 1   
     5     2     6 1   
     6     2    23 2   
     7     3     6 2   
     8     3    11 1   
     9     3    15 1   
    10     4    24 1   
    11     5     7 ar  
    12     5    12 ar  
    13     5    22 1   
    14     7     8 ar  
    15     7    25 1   
    16     8     9 ar  
    17     8    26 1   
    18     9    10 ar  
    19     9    27 1   
    20    10    12 ar  
    21    10    28 1   
    22    11    29 1   
    23    11    30 1   
    24    12    31 1   
    25    13    14 ar  
    26    13    32 1   
    27    14    19 ar  
    28    14    33 1   
    29    15    23 1   
    30    15    37 1   
    31    16    17 3   
    32    17    19 1   
    33    18    37 2   
    34    19    20 ar  
    35    20    21 ar  
    36    20    34 1   
    37    21    35 1   
    38    22    36 1   
    39    22    37 1   
@<TRIPOS>SUBSTRUCTURE
     1 M3A         1 TEMP              0 ****  ****    0 ROOT
