@<TRIPOS>MOLECULE
M3B
   35    34     1     0     0
SMALL
bcc


@<TRIPOS>ATOM
      1 C01         -1.7600    -0.5760     0.0050 c3         1 M3B       0.177800
      2 C02         -2.8510     0.4820     0.0720 c3         1 M3B      -0.080400
      3 C03         -4.2490    -0.1190     0.0020 c3         1 M3B      -0.078400
      4 C04         -5.3450     0.9350     0.0130 c3         1 M3B       0.149800
      5 C07          0.6530    -0.8470    -0.2430 c3         1 M3B       0.621900
      6 C12          4.2360     0.1930    -0.7580 c3         1 M3B       0.132400
      7 C14          5.6430     1.4830     0.5970 c3         1 M3B       0.125700
      8 N05         -6.6640     0.3210    -0.0450 n8         1 M3B      -0.885800
      9 N06         -0.4440     0.0280     0.0960 n7         1 M3B      -0.803200
     10 N08          0.6350    -2.0790     0.5340 n8         1 M3B      -0.956800
     11 N10          1.8720    -0.0610    -0.1920 n7         1 M3B      -0.831200
     12 O13          4.6020     0.5430     0.5550 os         1 M3B      -0.417600
     13 H01         -1.9410    -1.3390     0.7740 h1         1 M3B       0.037200
     14 H02         -1.8270    -1.0970    -0.9560 h1         1 M3B       0.037200
     15 H04         -2.7490     1.0560     1.0000 hc         1 M3B       0.043700
     16 H03         -2.7110     1.1940    -0.7470 hc         1 M3B       0.043700
     17 H06         -4.3480    -0.7270    -0.9030 hc         1 M3B       0.045700
     18 H05         -4.3930    -0.8010     0.8480 hc         1 M3B       0.045700
     19 H08         -5.2040     1.5870     0.8880 h1         1 M3B       0.026200
     20 H07         -5.2280     1.5770    -0.8650 h1         1 M3B       0.026200
     21 H1           0.5200    -1.1490    -1.2890 h3         1 M3B       0.082700
     22 H12          2.8360    -1.0580    -1.7340 h1         1 M3B       0.033200
     23 H11          3.3250    -1.6450    -0.1530 h1         1 M3B       0.033200
     24 H13          5.0670    -0.3050    -1.2760 h1         1 M3B       0.033200
     25 H14          3.9780     1.0870    -1.3430 h1         1 M3B       0.033200
     26 H17          5.3670     2.4240     0.1080 h1         1 M3B       0.029033
     27 H15          5.8680     1.6920     1.6430 h1         1 M3B       0.029033
     28 H16          6.5560     1.1110     0.1170 h1         1 M3B       0.029033
     29 H18         -6.8410    -0.1680     0.8230 hn         1 M3B       0.335300
     30 H19         -7.3710     1.0440    -0.0970 hn         1 M3B       0.335300
     31 H2          -0.3090     0.4060     1.0280 hn         1 M3B       0.350800
     32 H3           1.3450    -2.7200     0.2000 hn         1 M3B       0.343300
     33 H2C          0.8580    -1.8850     1.5050 hn         1 M3B       0.343300
     34 H4           2.0490     0.2280     0.7650 hn         1 M3B       0.363800
     35 C11          3.0440    -0.7380    -0.7100 c3         1 M3B       0.167800
@<TRIPOS>BOND
     1     1     2 1   
     2     1     9 1   
     3     1    13 1   
     4     1    14 1   
     5     2     3 1   
     6     2    15 1   
     7     2    16 1   
     8     3     4 1   
     9     3    17 1   
    10     3    18 1   
    11     4     8 1   
    12     4    19 1   
    13     4    20 1   
    14     5     9 1   
    15     5    10 1   
    16     5    11 1   
    17     5    21 1   
    18     6    12 1   
    19     6    24 1   
    20     6    25 1   
    21     6    35 1   
    22     7    12 1   
    23     7    26 1   
    24     7    27 1   
    25     7    28 1   
    26     8    29 1   
    27     8    30 1   
    28     9    31 1   
    29    10    32 1   
    30    10    33 1   
    31    11    34 1   
    32    11    35 1   
    33    22    35 1   
    34    23    35 1   
@<TRIPOS>SUBSTRUCTURE
     1 M3B         1 TEMP              0 ****  ****    0 ROOT
