@<TRIPOS>MOLECULE
M3B
   35    34     1     0     0
SMALL
No Charge or Current Charge


@<TRIPOS>ATOM
      1 C01         -1.7100    -0.6740    -0.2880 c3         1 M3B       0.177800
      2 C02         -2.7780     0.4040    -0.0090 c3         1 M3B      -0.080400
      3 C03         -4.2220    -0.1360    -0.1170 c3         1 M3B      -0.078400
      4 C04         -5.2880     0.9450     0.1590 c3         1 M3B       0.149800
      5 C07          0.6950    -0.9750    -0.3130 c3         1 M3B       0.621900
      6 C12          4.2240     0.2640    -0.8140 c3         1 M3B       0.155600
      7 C14          5.4990     1.4930     0.8400 c3         1 M3B       0.148900
      8 N05         -6.6530     0.4010     0.0460 n8         1 M3B      -0.996200
      9 N06         -0.3590    -0.0930    -0.1730 n7         1 M3B      -0.858400
     10 N08          0.8800    -1.3520     1.0050 n8         1 M3B      -1.067200
     11 N10          1.7660    -0.1170    -0.4560 n7         1 M3B      -0.886400
     12 O13          4.4190     0.5800     0.5820 os         1 M3B      -0.464000
     13 H01         -1.8450    -1.4990     0.4250 h1         1 M3B       0.037200
     14 H02         -1.8660    -1.0780    -1.2980 h1         1 M3B       0.037200
     15 H04         -2.6220     0.8140     0.9970 hc         1 M3B       0.043700
     16 H03         -2.6500     1.2310    -0.7190 hc         1 M3B       0.043700
     17 H06         -4.3770    -0.5470    -1.1230 hc         1 M3B       0.045700
     18 H05         -4.3510    -0.9620     0.5930 hc         1 M3B       0.045700
     19 H08         -5.1520     1.3490     1.1730 h1         1 M3B       0.026200
     20 H07         -5.1760     1.7670    -0.5610 h1         1 M3B       0.026200
     21 H1           0.5920    -1.7930    -1.0490 h3         1 M3B       0.082700
     22 H12          2.9270    -1.0060    -2.0020 h1         1 M3B       0.033200
     23 H11          3.2760    -1.6310    -0.3840 h1         1 M3B       0.033200
     24 H13          5.1240    -0.2090    -1.2310 h1         1 M3B       0.033200
     25 H14          4.0160     1.1720    -1.3950 h1         1 M3B       0.033200
     26 H17          5.3280     2.4520     0.3340 h1         1 M3B       0.029033
     27 H15          5.5870     1.6860     1.9170 h1         1 M3B       0.029033
     28 H16          6.4530     1.0790     0.4880 h1         1 M3B       0.029033
     29 H18         -6.7900    -0.3100     0.7750 hn         1 M3B       0.390500
     30 H19         -7.3270     1.1350     0.2960 hn         1 M3B       0.390500
     31 H2          -0.2210     0.2090     0.7870 hn         1 M3B       0.406000
     32 H3           0.1510    -2.0390     1.2030 hn         1 M3B       0.398500
     33 H2C          1.7230    -1.9280     1.0080 hn         1 M3B       0.398500
     34 H4           1.9190     0.1610     0.5100 hn         1 M3B       0.419000
     35 C11          3.0300    -0.7190    -0.9460 c3         1 M3B       0.167800
@<TRIPOS>BOND
     1     1     2 1   
     2     1     9 1   
     3     1    13 1   
     4     1    14 1   
     5     2     3 1   
     6     2    15 1   
     7     2    16 1   
     8     3     4 1   
     9     3    17 1   
    10     3    18 1   
    11     4     8 1   
    12     4    19 1   
    13     4    20 1   
    14     5     9 1   
    15     5    10 1   
    16     5    11 1   
    17     5    21 1   
    18     6    12 1   
    19     6    24 1   
    20     6    25 1   
    21     6    35 1   
    22     7    12 1   
    23     7    26 1   
    24     7    27 1   
    25     7    28 1   
    26     8    29 1   
    27     8    30 1   
    28     9    31 1   
    29    10    32 1   
    30    10    33 1   
    31    11    34 1   
    32    11    35 1   
    33    22    35 1   
    34    23    35 1   
@<TRIPOS>SUBSTRUCTURE
     1 M3B         1 TEMP              0 ****  ****    0 ROOT
