@<TRIPOS>MOLECULE
M3C
   28    28     1     0     0
SMALL
abcg2


@<TRIPOS>ATOM
      1 N1          16.5960     3.0410     0.8110 n8         1 M3C      -0.983200
      2 C2          16.3030     3.1490     2.2410 c3         1 M3C       0.189500
      3 C10         17.3260     4.0410     2.9420 c3         1 M3C      -0.076400
      4 C11         18.7200     3.4240     2.9690 c3         1 M3C       0.064600
      5 S12         19.9460     4.4060     3.8930 ss         1 M3C      -0.439000
      6 C13         19.3440     4.2010     5.5930 c3         1 M3C       0.042900
      7 C3          14.8690     3.6960     2.4200 c3         1 M3C       0.378700
      8 O4          14.0280     2.7880     1.7300 oh         1 M3C      -0.656500
      9 O15         14.7420     4.9860     1.8790 oh         1 M3C      -0.656500
     10 C5          14.4780     3.7470     3.8870 cc         1 M3C       0.329700
     11 N6          14.1720     4.8590     4.4900 nd         1 M3C      -0.655000
     12 C7          13.8510     4.6450     5.8090 cd         1 M3C       0.282900
     13 C8          13.9180     3.3470     6.2130 cc         1 M3C      -0.266000
     14 S9          14.3920     2.3470     4.8960 ss         1 M3C       0.023600
     15 HN11        15.9180     2.4260     0.3740 hn         1 M3C       0.405000
     16 HN12        17.5020     2.6030     0.6820 hn         1 M3C       0.405000
     17 H2          16.3070     2.1670     2.7370 h1         1 M3C       0.017700
     18 H101        17.3590     5.0110     2.4440 hc         1 M3C       0.065700
     19 H102        16.9950     4.2120     3.9670 hc         1 M3C       0.065700
     20 H111        18.6940     2.4200     3.3990 h1         1 M3C       0.066200
     21 H112        19.1410     3.3460     1.9660 h1         1 M3C       0.066200
     22 H131        20.0680     4.6910     6.2430 h1         1 M3C       0.059033
     23 H132        18.3700     4.6690     5.7310 h1         1 M3C       0.059033
     24 H133        19.2880     3.1430     5.8500 h1         1 M3C       0.059033
     25 HO4         13.1130     3.0930     1.8130 ho         1 M3C       0.469000
     26 H15         14.3920     5.5620     2.5790 ho         1 M3C       0.469000
     27 H7          13.5740     5.4810     6.4360 h4         1 M3C       0.049100
     28 H8          13.7160     2.9330     7.1870 h4         1 M3C       0.166000
@<TRIPOS>BOND
     1     1     2 1   
     2     1    15 1   
     3     1    16 1   
     4     2     3 1   
     5     2     7 1   
     6     2    17 1   
     7     3     4 1   
     8     3    18 1   
     9     3    19 1   
    10     4     5 1   
    11     4    20 1   
    12     4    21 1   
    13     5     6 1   
    14     6    22 1   
    15     6    23 1   
    16     6    24 1   
    17     7     8 1   
    18     7     9 1   
    19     7    10 1   
    20     8    25 1   
    21     9    26 1   
    22    10    11 2   
    23    10    14 1   
    24    11    12 1   
    25    12    13 2   
    26    12    27 1   
    27    13    14 1   
    28    13    28 1   
@<TRIPOS>SUBSTRUCTURE
     1 M3C         1 TEMP              0 ****  ****    0 ROOT
