@<TRIPOS>MOLECULE
M3C
   28    28     1     0     0
SMALL
No Charge or Current Charge


@<TRIPOS>ATOM
      1 N1          16.7560     2.8370     0.8700 n8         1 M3C      -0.983200
      2 C2          16.3810     3.0730     2.2930 c3         1 M3C       0.189500
      3 C10         17.4130     4.0200     2.9660 c3         1 M3C      -0.076400
      4 C11         18.8530     3.4600     2.9840 c3         1 M3C       0.064600
      5 S12         20.0020     4.6060     3.8790 ss         1 M3C      -0.439000
      6 C13         19.5790     4.2050     5.6380 c3         1 M3C       0.042900
      7 C3          14.8770     3.5640     2.4380 c3         1 M3C       0.378700
      8 O4          14.0210     2.6610     1.7330 oh         1 M3C      -0.656500
      9 O15         14.7180     4.8010     1.7440 oh         1 M3C      -0.656500
     10 C5          14.4340     3.7140     3.9050 cc         1 M3C       0.329700
     11 N6          13.7380     4.7650     4.3420 nd         1 M3C      -0.655000
     12 C7          13.4640     4.6190     5.6960 cd         1 M3C       0.282900
     13 C8          13.9440     3.4600     6.2580 cc         1 M3C      -0.266000
     14 S9          14.7700     2.4720     5.0880 ss         1 M3C       0.023600
     15 HN11        16.5930     3.7200     0.3720 hn         1 M3C       0.405000
     16 HN12        16.0200     2.2400     0.4740 hn         1 M3C       0.405000
     17 H2          16.4570     2.0990     2.7940 h1         1 M3C       0.017700
     18 H101        17.4130     4.9900     2.4540 hc         1 M3C       0.065700
     19 H102        17.1040     4.2130     3.9990 hc         1 M3C       0.065700
     20 H111        18.8690     2.4750     3.4700 h1         1 M3C       0.066200
     21 H112        19.2140     3.3380     1.9550 h1         1 M3C       0.066200
     22 H131        20.2300     4.7750     6.3130 h1         1 M3C       0.059033
     23 H132        18.5350     4.4680     5.8470 h1         1 M3C       0.059033
     24 H133        19.7250     3.1330     5.8230 h1         1 M3C       0.059033
     25 HO4         13.1050     2.8740     2.0110 ho         1 M3C       0.469000
     26 H15         14.1430     5.3360     2.3380 ho         1 M3C       0.469000
     27 H7          12.9090     5.3900     6.2170 h4         1 M3C       0.049100
     28 H8          13.8570     3.1250     7.2830 h4         1 M3C       0.166000
@<TRIPOS>BOND
     1     1     2 1   
     2     1    15 1   
     3     1    16 1   
     4     2     3 1   
     5     2     7 1   
     6     2    17 1   
     7     3     4 1   
     8     3    18 1   
     9     3    19 1   
    10     4     5 1   
    11     4    20 1   
    12     4    21 1   
    13     5     6 1   
    14     6    22 1   
    15     6    23 1   
    16     6    24 1   
    17     7     8 1   
    18     7     9 1   
    19     7    10 1   
    20     8    25 1   
    21     9    26 1   
    22    10    11 2   
    23    10    14 1   
    24    11    12 1   
    25    12    13 2   
    26    12    27 1   
    27    13    14 1   
    28    13    28 1   
@<TRIPOS>SUBSTRUCTURE
     1 M3C         1 TEMP              0 ****  ****    0 ROOT
