@<TRIPOS>MOLECULE
M3D
   60    64     1     0     0
SMALL
bcc


@<TRIPOS>ATOM
      1 C1           0.0710     3.8030     0.4810 cc         1 M3D      -0.032000
      2 C2           0.5330     2.5450     0.3760 cd         1 M3D      -0.144600
      3 C3          -2.2210     3.5890    -0.4780 ca         1 M3D       0.374900
      4 O1          -1.7900     2.5500    -1.2690 os         1 M3D      -0.509600
      5 O2           2.7130     3.1360     1.1530 o          1 M3D      -0.605100
      6 O3          -5.5520    -5.2630    -0.3460 oh         1 M3D      -0.473100
      7 C11         -2.3450     0.3290    -0.6710 ca         1 M3D      -0.194300
      8 C12         -2.0670    -0.8590     0.0010 cp         1 M3D      -0.012000
      9 C13         -0.9170    -0.9160     0.7900 ca         1 M3D      -0.127000
     10 C14         -0.0740     0.1730     0.8940 ca         1 M3D      -0.109000
     11 C15          2.0210     2.3660     0.5000 c          1 M3D       0.677700
     12 C16         -2.9760    -2.0150    -0.1090 cp         1 M3D      -0.081000
     13 C17         -3.6840    -2.2760    -1.2870 ca         1 M3D      -0.052000
     14 C18         -4.5480    -3.3480    -1.4000 ca         1 M3D      -0.232000
     15 C19         -4.7360    -4.2100    -0.3230 ca         1 M3D       0.185100
     16 C20         -4.0300    -3.9650     0.8620 ca         1 M3D      -0.060000
     17 C21         -3.1630    -2.8780     0.9620 ca         1 M3D      -0.040000
     18 C22          3.9430     1.0150    -0.1980 c3         1 M3D       0.100000
     19 C23          4.1410    -0.4470    -0.5750 c3         1 M3D       0.151800
     20 C24          5.7990    -1.9860    -1.3890 c6         1 M3D       0.126300
     21 C25          7.2840    -2.2960    -1.4010 c6         1 M3D       0.129900
     22 C26          7.5370    -1.3670     0.7110 c6         1 M3D       0.129900
     23 C27          6.0600    -1.0300     0.7700 c6         1 M3D       0.126300
     24 C28         -4.2170    -4.8320     1.9740 cg         1 M3D       0.246800
     25 C10         -1.4900     1.4110    -0.5640 ca         1 M3D       0.369900
     26 C4          -1.3130     4.2350     0.3630 ca         1 M3D      -0.146300
     27 C5          -1.7590     5.3570     1.0680 ca         1 M3D      -0.093000
     28 C6          -3.0700     5.7910     0.9660 ca         1 M3D      -0.135000
     29 C7          -3.9580     5.1180     0.1360 ca         1 M3D      -0.104000
     30 C8          -3.5340     4.0140    -0.5900 ca         1 M3D      -0.203300
     31 C9          -0.3360     1.3700     0.2180 ca         1 M3D      -0.119300
     32 N1           2.5320     1.3300    -0.1830 ns         1 M3D      -0.571900
     33 N2           5.5420    -0.8130    -0.5710 n3         1 M3D      -0.716600
     34 N3          -4.3590    -5.5300     2.8800 n1         1 M3D      -0.359800
     35 O4           7.7830    -2.4970    -0.0970 os         1 M3D      -0.402600
     36 H1           0.7870     4.5860     0.7060 ha         1 M3D       0.157000
     37 H2          -6.0080    -5.3320    -1.1940 ho         1 M3D       0.436000
     38 H3          -3.2360     0.4290    -1.2780 ha         1 M3D       0.147000
     39 H4          -0.6610    -1.8260     1.3180 ha         1 M3D       0.139000
     40 H5           0.8020     0.0950     1.5240 ha         1 M3D       0.145000
     41 H6          -3.5470    -1.6380    -2.1510 ha         1 M3D       0.139000
     42 H7          -5.0740    -3.5210    -2.3310 ha         1 M3D       0.141000
     43 H8          -2.6530    -2.7090     1.9010 ha         1 M3D       0.149000
     44 H9           4.3500     1.2240     0.7910 h1         1 M3D       0.061700
     45 H10          4.4800     1.6480    -0.9100 h1         1 M3D       0.061700
     46 H11          3.5430    -1.0880     0.0930 h1         1 M3D       0.035200
     47 H12          3.7560    -0.6010    -1.5860 h1         1 M3D       0.035200
     48 H14          5.2420    -2.8680    -1.0290 h1         1 M3D       0.042200
     49 H15          7.4720    -3.2090    -1.9680 h1         1 M3D       0.052450
     50 H16          7.8230    -1.4750    -1.8960 h1         1 M3D       0.052450
     51 H17          8.0930    -0.4970     0.3350 h1         1 M3D       0.052450
     52 H18          7.9070    -1.5950     1.7120 h1         1 M3D       0.052450
     53 H19          5.5130    -1.8380     1.2860 h1         1 M3D       0.042200
     54 H20          5.9410    -0.1280     1.3740 h1         1 M3D       0.042200
     55 H21         -1.0640     5.8840     1.7100 ha         1 M3D       0.140000
     56 H22         -3.3960     6.6580     1.5250 ha         1 M3D       0.139000
     57 H23         -4.9820     5.4560     0.0450 ha         1 M3D       0.137000
     58 H24         -4.2110     3.4960    -1.2580 ha         1 M3D       0.146000
     59 H25          1.9280     0.8130    -0.8030 hn         1 M3D       0.320500
     60 H13          5.4720    -1.7920    -2.4130 h1         1 M3D       0.042200
@<TRIPOS>BOND
     1     1     2 2   
     2     1    26 1   
     3     1    36 1   
     4     2    11 1   
     5     2    31 1   
     6     3     4 1   
     7     3    26 ar  
     8     3    30 ar  
     9     4    25 1   
    10     5    11 2   
    11     6    15 1   
    12     6    37 1   
    13     7     8 ar  
    14     7    25 ar  
    15     7    38 1   
    16     8     9 ar  
    17     8    12 1   
    18     9    10 ar  
    19     9    39 1   
    20    10    31 ar  
    21    10    40 1   
    22    11    32 1   
    23    12    13 ar  
    24    12    17 ar  
    25    13    14 ar  
    26    13    41 1   
    27    14    15 ar  
    28    14    42 1   
    29    15    16 ar  
    30    16    17 ar  
    31    16    24 1   
    32    17    43 1   
    33    18    19 1   
    34    18    32 1   
    35    18    44 1   
    36    18    45 1   
    37    19    33 1   
    38    19    46 1   
    39    19    47 1   
    40    20    21 1   
    41    20    33 1   
    42    20    48 1   
    43    20    60 1   
    44    21    35 1   
    45    21    49 1   
    46    21    50 1   
    47    22    23 1   
    48    22    35 1   
    49    22    51 1   
    50    22    52 1   
    51    23    33 1   
    52    23    53 1   
    53    23    54 1   
    54    24    34 3   
    55    25    31 ar  
    56    26    27 ar  
    57    27    28 ar  
    58    27    55 1   
    59    28    29 ar  
    60    28    56 1   
    61    29    30 ar  
    62    29    57 1   
    63    30    58 1   
    64    32    59 1   
@<TRIPOS>SUBSTRUCTURE
     1 M3D         1 TEMP              0 ****  ****    0 ROOT
