@<TRIPOS>MOLECULE
M3D
   60    64     1     0     0
SMALL
No Charge or Current Charge


@<TRIPOS>ATOM
      1 C1           0.2400     3.5280     0.5910 cc         1 M3D      -0.014000
      2 C2           0.5390     2.1970     0.2920 cd         1 M3D      -0.144600
      3 C3          -2.2170     3.6160     0.0240 ca         1 M3D       0.244300
      4 O1          -2.0550     2.6890    -0.9630 os         1 M3D      -0.509600
      5 O2           2.9040     2.6840     0.3620 o          1 M3D      -0.605100
      6 O3          -6.1900    -5.0630    -1.5940 oh         1 M3D      -0.512100
      7 C11         -2.6450     0.3940    -0.8690 ca         1 M3D      -0.111000
      8 C12         -2.3970    -0.9440    -0.4870 cp         1 M3D      -0.012000
      9 C13         -1.1840    -1.2120     0.1890 ca         1 M3D      -0.109000
     10 C14         -0.2530    -0.1920     0.4490 ca         1 M3D      -0.091000
     11 C15          2.0000     1.9190     0.0530 c          1 M3D       0.610700
     12 C16         -3.3890    -2.0280    -0.7690 cp         1 M3D      -0.081000
     13 C17         -4.1550    -2.0240    -1.9610 ca         1 M3D      -0.034000
     14 C18         -5.0860    -3.0420    -2.2280 ca         1 M3D      -0.214000
     15 C19         -5.2770    -4.0860    -1.3100 ca         1 M3D       0.185100
     16 C20         -4.5280    -4.1130    -0.1150 ca         1 M3D      -0.060000
     17 C21         -3.5950    -3.0910     0.1470 ca         1 M3D      -0.022000
     18 C22          3.6130     0.2410    -0.9260 c3         1 M3D       0.100000
     19 C23          4.3720    -0.2830     0.3200 c3         1 M3D       0.151800
     20 C24          6.2570    -1.6010     1.2410 c6         1 M3D       0.126300
     21 C25          7.6140    -2.2970     0.9260 c6         1 M3D       0.153100
     22 C26          8.0390    -0.7440    -0.8650 c6         1 M3D       0.153100
     23 C27          6.6880    -0.0170    -0.5920 c6         1 M3D       0.126300
     24 C28         -4.7040    -5.1670     0.8470 cg         1 M3D       0.336000
     25 C10         -1.7210     1.4160    -0.5990 ca         1 M3D       0.239300
     26 C4          -1.1270     3.9970     0.8300 ca         1 M3D      -0.081000
     27 C5          -1.3380     4.9520     1.8450 ca         1 M3D      -0.075000
     28 C6          -2.6170     5.4940     2.0660 ca         1 M3D      -0.117000
     29 C7          -3.6980     5.1000     1.2610 ca         1 M3D      -0.086000
     30 C8          -3.4940     4.1610     0.2370 ca         1 M3D      -0.120000
     31 C9          -0.4890     1.1410     0.0380 ca         1 M3D      -0.054000
     32 N1           2.2690     0.7400    -0.6080 ns         1 M3D      -0.504900
     33 N2           5.6780    -0.9330     0.0330 n3         1 M3D      -0.716600
     34 N3          -4.8340    -6.0150     1.6390 n1         1 M3D      -0.449000
     35 O4           8.5430    -1.3470     0.3500 os         1 M3D      -0.449000
     36 H1           1.0490     4.2370     0.7330 ha         1 M3D       0.139000
     37 H2          -6.5980    -4.8610    -2.4630 ho         1 M3D       0.475000
     38 H3          -3.5770     0.6540    -1.3600 ha         1 M3D       0.129000
     39 H4          -0.9540    -2.2250     0.5090 ha         1 M3D       0.121000
     40 H5           0.6490    -0.4470     1.0020 ha         1 M3D       0.127000
     41 H6          -4.0150    -1.2320    -2.6940 ha         1 M3D       0.121000
     42 H7          -5.6550    -3.0110    -3.1540 ha         1 M3D       0.123000
     43 H8          -3.0320    -3.1120     1.0780 ha         1 M3D       0.131000
     44 H9           4.1850     1.0490    -1.3990 h1         1 M3D       0.061700
     45 H10          3.5160    -0.5760    -1.6540 h1         1 M3D       0.061700
     46 H11          4.5190     0.5510     1.0190 h1         1 M3D       0.035200
     47 H12          3.7150    -1.0070     0.8210 h1         1 M3D       0.035200
     48 H14          6.4180    -0.8650     2.0430 h1         1 M3D       0.042200
     49 H15          8.0470    -2.7090     1.8490 h1         1 M3D       0.052450
     50 H16          7.4570    -3.1250     0.2210 h1         1 M3D       0.052450
     51 H17          7.8970    -1.5250    -1.6260 h1         1 M3D       0.052450
     52 H18          8.7800    -0.0260    -1.2460 h1         1 M3D       0.052450
     53 H19          6.8790     0.8450     0.0650 h1         1 M3D       0.042200
     54 H20          6.3150     0.3810    -1.5460 h1         1 M3D       0.042200
     55 H21         -0.5060     5.2790     2.4660 ha         1 M3D       0.122000
     56 H22         -2.7670     6.2260     2.8570 ha         1 M3D       0.121000
     57 H23         -4.6870     5.5210     1.4290 ha         1 M3D       0.119000
     58 H24         -4.3240     3.8490    -0.3910 ha         1 M3D       0.128000
     59 H25          1.4680     0.1870    -0.8860 hn         1 M3D       0.320500
     60 H13          5.5580    -2.3540     1.6320 h1         1 M3D       0.042200
@<TRIPOS>BOND
     1     1     2 2   
     2     1    26 1   
     3     1    36 1   
     4     2    11 1   
     5     2    31 1   
     6     3     4 1   
     7     3    26 ar  
     8     3    30 ar  
     9     4    25 1   
    10     5    11 2   
    11     6    15 1   
    12     6    37 1   
    13     7     8 ar  
    14     7    25 ar  
    15     7    38 1   
    16     8     9 ar  
    17     8    12 1   
    18     9    10 ar  
    19     9    39 1   
    20    10    31 ar  
    21    10    40 1   
    22    11    32 1   
    23    12    13 ar  
    24    12    17 ar  
    25    13    14 ar  
    26    13    41 1   
    27    14    15 ar  
    28    14    42 1   
    29    15    16 ar  
    30    16    17 ar  
    31    16    24 1   
    32    17    43 1   
    33    18    19 1   
    34    18    32 1   
    35    18    44 1   
    36    18    45 1   
    37    19    33 1   
    38    19    46 1   
    39    19    47 1   
    40    20    21 1   
    41    20    33 1   
    42    20    48 1   
    43    20    60 1   
    44    21    35 1   
    45    21    49 1   
    46    21    50 1   
    47    22    23 1   
    48    22    35 1   
    49    22    51 1   
    50    22    52 1   
    51    23    33 1   
    52    23    53 1   
    53    23    54 1   
    54    24    34 3   
    55    25    31 ar  
    56    26    27 ar  
    57    27    28 ar  
    58    27    55 1   
    59    28    29 ar  
    60    28    56 1   
    61    29    30 ar  
    62    29    57 1   
    63    30    58 1   
    64    32    59 1   
@<TRIPOS>SUBSTRUCTURE
     1 M3D         1 TEMP              0 ****  ****    0 ROOT
