@<TRIPOS>MOLECULE
M3E
   22    23     1     0     0
SMALL
bcc


@<TRIPOS>ATOM
      1 CAC          4.1100     0.0030    -0.0180 ca         1 M3E      -0.106000
      2 CAD          3.3930     1.1240    -0.4130 ca         1 M3E      -0.127500
      3 CAE          3.4360    -1.1420     0.3880 ca         1 M3E      -0.127500
      4 CAF          2.0060     1.1040    -0.4020 ca         1 M3E      -0.101500
      5 CAG          2.0510    -1.1680     0.3960 ca         1 M3E      -0.101500
      6 CAH         -0.8540    -1.1820    -0.3540 cc         1 M3E      -0.328200
      7 CAK          1.3250    -0.0450     0.0000 ca         1 M3E      -0.092800
      8 CAL         -0.1460    -0.0860    -0.0020 cd         1 M3E       0.170400
      9 CAM         -2.2950    -1.1510    -0.3470 c          1 M3E       0.732700
     10 CAN         -2.1570     1.2010     0.3860 c          1 M3E       0.827500
     11 NAI         -0.7930     1.0640     0.3550 ns         1 M3E      -0.474100
     12 NAJ         -2.8380     0.0720     0.0200 ns         1 M3E      -0.603500
     13 OAA         -3.0220    -2.0830    -0.6410 o          1 M3E      -0.602500
     14 OAB         -2.7050     2.2320     0.7160 o          1 M3E      -0.630500
     15 H1           5.1920     0.0220    -0.0240 ha         1 M3E       0.138000
     16 H2           3.9110     2.0160    -0.7380 ha         1 M3E       0.139500
     17 H3           3.9890    -2.0150     0.7070 ha         1 M3E       0.139500
     18 H4           1.4640     1.9800    -0.7360 ha         1 M3E       0.140000
     19 H5           1.5330    -2.0560     0.7330 ha         1 M3E       0.140000
     20 H8          -3.8480     0.1410     0.0320 hn         1 M3E       0.343500
     21 H7          -0.2610     1.8560     0.6860 hn         1 M3E       0.347500
     22 H6          -0.3580    -2.0850    -0.6750 ha         1 M3E       0.173000
@<TRIPOS>BOND
     1     1     2 ar  
     2     1     3 ar  
     3     1    15 1   
     4     2     4 ar  
     5     2    16 1   
     6     3     5 ar  
     7     3    17 1   
     8     4     7 ar  
     9     4    18 1   
    10     5     7 ar  
    11     5    19 1   
    12     6     8 2   
    13     6     9 1   
    14     6    22 1   
    15     7     8 1   
    16     8    11 1   
    17     9    12 1   
    18     9    13 2   
    19    10    11 1   
    20    10    12 1   
    21    10    14 2   
    22    11    21 1   
    23    12    20 1   
@<TRIPOS>SUBSTRUCTURE
     1 M3E         1 TEMP              0 ****  ****    0 ROOT
