@<TRIPOS>MOLECULE
M3E
   22    23     1     0     0
SMALL
No Charge or Current Charge


@<TRIPOS>ATOM
      1 CAC          4.1860     0.0080    -0.0100 ca         1 M3E      -0.088000
      2 CAD          3.4550     1.2040    -0.0180 ca         1 M3E      -0.109500
      3 CAE          3.5060    -1.2180     0.0020 ca         1 M3E      -0.109500
      4 CAF          2.0490     1.1760    -0.0120 ca         1 M3E      -0.083500
      5 CAG          2.1010    -1.2500     0.0080 ca         1 M3E      -0.083500
      6 CAH         -0.9150    -1.2250     0.0190 cc         1 M3E      -0.378200
      7 CAK          1.3420    -0.0530     0.0010 ca         1 M3E      -0.092800
      8 CAL         -0.1470    -0.0810     0.0070 cd         1 M3E       0.170400
      9 CAM         -2.3760    -1.1830     0.0240 c          1 M3E       0.590200
     10 CAN         -2.2050     1.2410     0.0030 c          1 M3E       0.618000
     11 NAI         -0.8500     1.1040    -0.0010 ns         1 M3E      -0.520600
     12 NAJ         -2.8870     0.0730     0.0160 ns         1 M3E      -0.469500
     13 OAA         -3.0870    -2.1720     0.0350 o          1 M3E      -0.527000
     14 OAB         -2.7520     2.3260    -0.0040 o          1 M3E      -0.555000
     15 H1           5.2730     0.0300    -0.0150 ha         1 M3E       0.120000
     16 H2           3.9790     2.1570    -0.0270 ha         1 M3E       0.121500
     17 H3           4.0690    -2.1490     0.0080 ha         1 M3E       0.121500
     18 H4           1.5270     2.1280    -0.0180 ha         1 M3E       0.122000
     19 H5           1.6200    -2.2230     0.0180 ha         1 M3E       0.122000
     20 H8          -3.8920     0.1450     0.0190 hn         1 M3E       0.343500
     21 H7          -0.3610     1.9890    -0.0100 hn         1 M3E       0.461000
     22 H6          -0.5030    -2.2230     0.0260 ha         1 M3E       0.223000
@<TRIPOS>BOND
     1     1     2 ar  
     2     1     3 ar  
     3     1    15 1   
     4     2     4 ar  
     5     2    16 1   
     6     3     5 ar  
     7     3    17 1   
     8     4     7 ar  
     9     4    18 1   
    10     5     7 ar  
    11     5    19 1   
    12     6     8 2   
    13     6     9 1   
    14     6    22 1   
    15     7     8 1   
    16     8    11 1   
    17     9    12 1   
    18     9    13 2   
    19    10    11 1   
    20    10    12 1   
    21    10    14 2   
    22    11    21 1   
    23    12    20 1   
@<TRIPOS>SUBSTRUCTURE
     1 M3E         1 TEMP              0 ****  ****    0 ROOT
