@<TRIPOS>MOLECULE
M3F
   29    31     1     0     0
SMALL
No Charge or Current Charge


@<TRIPOS>ATOM
      1 CAA         -0.0350     3.1380     0.2460 c3         1 M3F      -0.060800
      2 OAB         -2.6010    -3.0550     0.0620 o          1 M3F      -0.531000
      3 FAC          4.3000     0.1970     1.0770 f          1 M3F      -0.104000
      4 FAD          4.3100     0.4490    -1.0810 f          1 M3F      -0.104000
      5 FAE          4.0090    -1.5220    -0.2200 f          1 M3F      -0.104000
      6 CAF         -4.9020     0.5250    -0.0440 ca         1 M3F      -0.116000
      7 CAG         -4.2240     1.7420    -0.1160 ca         1 M3F      -0.081000
      8 CAH         -4.1730    -0.6660     0.0040 ca         1 M3F      -0.049000
      9 CAI         -2.8200     1.7740    -0.1180 ca         1 M3F      -0.118000
     10 CAJ          1.7070     1.3830     0.0340 ca         1 M3F      -0.164000
     11 NAK          1.3320    -0.9830    -0.0640 nb         1 M3F      -0.693000
     12 NAL         -0.7000    -1.8790    -0.0450 ns         1 M3F      -0.464400
     13 CAM          0.3230     1.6640     0.0680 ca         1 M3F       0.010700
     14 CAN          2.1830     0.0650    -0.0410 ca         1 M3F       0.292300
     15 CAO         -2.0420    -1.9710     0.0150 c          1 M3F       0.584600
     16 CAP         -2.7590    -0.6490    -0.0010 ca         1 M3F      -0.156600
     17 CAQ          0.0210    -0.7160    -0.0440 ca         1 M3F       0.500900
     18 CAR         -2.0390     0.5890    -0.0320 ca         1 M3F       0.021000
     19 CAS         -0.5930     0.5590    -0.0070 ca         1 M3F      -0.099000
     20 CAT          3.7020    -0.2110    -0.0670 c3         1 M3F       0.268700
     21 HAA         -0.4420     3.5670    -0.6770 hc         1 M3F       0.056367
     22 HAAA        -0.7420     3.2830     1.0710 hc         1 M3F       0.056367
     23 HAAB         0.8440     3.7410     0.5020 hc         1 M3F       0.056367
     24 HAF         -5.9900     0.5020    -0.0440 ha         1 M3F       0.124000
     25 HAG         -4.7870     2.6710    -0.1810 ha         1 M3F       0.118000
     26 HAH         -4.7130    -1.6100     0.0380 ha         1 M3F       0.142000
     27 HAI         -2.3910     2.7550    -0.2220 ha         1 M3F       0.120000
     28 HAJ          2.4310     2.1920     0.0810 ha         1 M3F       0.144000
     29 HNAL        -0.1670    -2.7340    -0.0450 hn         1 M3F       0.348500
@<TRIPOS>BOND
     1     1    13 1   
     2     1    21 1   
     3     1    22 1   
     4     1    23 1   
     5     2    15 2   
     6     3    20 1   
     7     4    20 1   
     8     5    20 1   
     9     6     7 ar  
    10     6     8 ar  
    11     6    24 1   
    12     7     9 ar  
    13     7    25 1   
    14     8    16 ar  
    15     8    26 1   
    16     9    18 ar  
    17     9    27 1   
    18    10    13 ar  
    19    10    14 ar  
    20    10    28 1   
    21    11    14 ar  
    22    11    17 ar  
    23    12    15 1   
    24    12    17 1   
    25    12    29 1   
    26    13    19 ar  
    27    14    20 1   
    28    15    16 1   
    29    16    18 ar  
    30    17    19 ar  
    31    18    19 1   
@<TRIPOS>SUBSTRUCTURE
     1 M3F         1 TEMP              0 ****  ****    0 ROOT
