@<TRIPOS>MOLECULE
M3F
   29    31     1     0     0
SMALL
bcc


@<TRIPOS>ATOM
      1 CAA         -0.0990     3.0890     0.2100 c3         1 M3F      -0.060800
      2 OAB         -2.6130    -2.9820     0.3700 o          1 M3F      -0.606500
      3 FAC          4.0110    -0.9270     0.9330 f          1 M3F      -0.225300
      4 FAD          4.3920     0.8860    -0.1640 f          1 M3F      -0.225300
      5 FAE          3.9010    -0.9290    -1.2140 f          1 M3F      -0.225300
      6 CAF         -4.8360     0.5300    -0.0460 ca         1 M3F      -0.134000
      7 CAG         -4.1470     1.7180    -0.2680 ca         1 M3F      -0.099000
      8 CAH         -4.1200    -0.6340     0.1320 ca         1 M3F      -0.067000
      9 CAI         -2.7660     1.7440    -0.2680 ca         1 M3F      -0.136000
     10 CAJ          1.6980     1.4210     0.0210 ca         1 M3F      -0.247300
     11 NAK          1.3700    -0.9280    -0.0370 nb         1 M3F      -0.693000
     12 NAL         -0.6880    -1.8560     0.0860 ns         1 M3F      -0.531400
     13 CAM          0.3240     1.6590     0.0610 ca         1 M3F       0.010700
     14 CAN          2.1600     0.1260    -0.0520 ca         1 M3F       0.357600
     15 CAO         -2.0400    -1.9170     0.2180 c          1 M3F       0.727100
     16 CAP         -2.7250    -0.6200     0.1190 ca         1 M3F      -0.156600
     17 CAQ          0.0690    -0.7150     0.0070 ca         1 M3F       0.566200
     18 CAR         -2.0110     0.5840    -0.0420 ca         1 M3F       0.021000
     19 CAS         -0.5470     0.5560    -0.0020 ca         1 M3F      -0.164300
     20 CAT          3.6260    -0.2060    -0.1240 c3         1 M3F       0.632600
     21 HAA         -0.4780     3.5020    -0.7260 hc         1 M3F       0.056367
     22 HAAA        -0.8690     3.2130     0.9690 hc         1 M3F       0.056367
     23 HAAB         0.7560     3.6960     0.5000 hc         1 M3F       0.056367
     24 HAF         -5.9170     0.5150    -0.0350 ha         1 M3F       0.142000
     25 HAG         -4.6910     2.6350    -0.4520 ha         1 M3F       0.136000
     26 HAH         -4.6360    -1.5740     0.2710 ha         1 M3F       0.160000
     27 HAI         -2.2880     2.6840    -0.4800 ha         1 M3F       0.138000
     28 HAJ          2.3800     2.2580     0.0570 ha         1 M3F       0.162000
     29 HNAL        -0.1750    -2.7290     0.1060 hn         1 M3F       0.348500
@<TRIPOS>BOND
     1     1    13 1   
     2     1    21 1   
     3     1    22 1   
     4     1    23 1   
     5     2    15 2   
     6     3    20 1   
     7     4    20 1   
     8     5    20 1   
     9     6     7 ar  
    10     6     8 ar  
    11     6    24 1   
    12     7     9 ar  
    13     7    25 1   
    14     8    16 ar  
    15     8    26 1   
    16     9    18 ar  
    17     9    27 1   
    18    10    13 ar  
    19    10    14 ar  
    20    10    28 1   
    21    11    14 ar  
    22    11    17 ar  
    23    12    15 1   
    24    12    17 1   
    25    12    29 1   
    26    13    19 ar  
    27    14    20 1   
    28    15    16 1   
    29    16    18 ar  
    30    17    19 ar  
    31    18    19 1   
@<TRIPOS>SUBSTRUCTURE
     1 M3F         1 TEMP              0 ****  ****    0 ROOT
