@<TRIPOS>MOLECULE
M3H
   21    22     1     0     0
SMALL
abcg2


@<TRIPOS>ATOM
      1 CAA          3.2630    -0.0490     0.0480 ca         1 M3H      -0.095000
      2 CAB          2.5810     1.1410     0.2780 ca         1 M3H      -0.119000
      3 CAC          2.5530    -1.2090    -0.2250 ca         1 M3H      -0.119000
      4 CAD          1.1970     1.1680     0.2370 ca         1 M3H      -0.078500
      5 CAE          1.1650    -1.1850    -0.2630 ca         1 M3H      -0.078500
      6 CAF         -3.0670     0.7590    -0.2620 c5         1 M3H       0.086800
      7 CAG         -3.1180    -0.7050     0.2110 c5         1 M3H       0.151800
      8 CAJ         -0.9950     0.0520    -0.0740 ce         1 M3H       0.617800
      9 CAK          0.4760     0.0040    -0.0300 ca         1 M3H      -0.132900
     10 NAH         -1.6580     1.1330    -0.2300 n2         1 M3H      -0.624900
     11 NAI         -1.7310    -1.1070     0.0070 nu         1 M3H      -0.893400
     12 H1           4.3450    -0.0690     0.0790 ha         1 M3H       0.113000
     13 H2           3.1300     2.0480     0.4940 ha         1 M3H       0.115000
     14 H3           3.0770    -2.1370    -0.4140 ha         1 M3H       0.115000
     15 H4           0.6650     2.0930     0.4210 ha         1 M3H       0.126500
     16 H5           0.6260    -2.0950    -0.4950 ha         1 M3H       0.126500
     17 H7          -3.6680     1.4240     0.3590 h1         1 M3H       0.063700
     18 H8          -3.3980    -0.7830     1.2650 h1         1 M3H       0.046700
     19 H9          -3.8080    -1.3170    -0.3690 h1         1 M3H       0.046700
     20 H13         -1.3760    -1.8560     0.5820 hn         1 M3H       0.467000
     21 H6          -3.4440     0.8570    -1.2860 h1         1 M3H       0.063700
@<TRIPOS>BOND
     1     1     2 ar  
     2     1     3 ar  
     3     1    12 1   
     4     2     4 ar  
     5     2    13 1   
     6     3     5 ar  
     7     3    14 1   
     8     4     9 ar  
     9     4    15 1   
    10     5     9 ar  
    11     5    16 1   
    12     6     7 1   
    13     6    10 1   
    14     6    17 1   
    15     6    21 1   
    16     7    11 1   
    17     7    18 1   
    18     7    19 1   
    19     8     9 1   
    20     8    10 2   
    21     8    11 1   
    22    11    20 1   
@<TRIPOS>SUBSTRUCTURE
     1 M3H         1 TEMP              0 ****  ****    0 ROOT
