@<TRIPOS>MOLECULE
M3H
   21    22     1     0     0
SMALL
No Charge or Current Charge


@<TRIPOS>ATOM
      1 CAA          3.2620    -0.0700     0.1750 ca         1 M3H      -0.095000
      2 CAB          2.5560     1.1250     0.3890 ca         1 M3H      -0.119000
      3 CAC          2.5700    -1.2280    -0.2120 ca         1 M3H      -0.119000
      4 CAD          1.1600     1.1600     0.2230 ca         1 M3H      -0.078500
      5 CAE          1.1740    -1.1960    -0.3770 ca         1 M3H      -0.078500
      6 CAF         -3.1170     0.7530    -0.2960 c5         1 M3H       0.086800
      7 CAG         -3.0720    -0.6580     0.3600 c5         1 M3H       0.151800
      8 CAJ         -1.0410     0.0390    -0.3490 ce         1 M3H       0.617800
      9 CAK          0.4460    -0.0050    -0.1460 ca         1 M3H      -0.132900
     10 NAH         -1.6920     1.1460    -0.4250 n2         1 M3H      -0.624900
     11 NAI         -1.7690    -1.1270    -0.1580 nu         1 M3H      -0.893400
     12 H1           4.3420    -0.0950     0.3010 ha         1 M3H       0.113000
     13 H2           3.0910     2.0260     0.6810 ha         1 M3H       0.115000
     14 H3           3.1170    -2.1520    -0.3900 ha         1 M3H       0.115000
     15 H4           0.6340     2.0970     0.3920 ha         1 M3H       0.126500
     16 H5           0.6650    -2.1030    -0.6980 ha         1 M3H       0.126500
     17 H7          -3.6820     1.4680     0.3170 h1         1 M3H       0.063700
     18 H8          -3.0760    -0.5900     1.4570 h1         1 M3H       0.046700
     19 H9          -3.9190    -1.2840     0.0460 h1         1 M3H       0.046700
     20 H13         -1.2470    -1.8500     0.3330 hn         1 M3H       0.467000
     21 H6          -3.5850     0.7100    -1.2890 h1         1 M3H       0.063700
@<TRIPOS>BOND
     1     1     2 ar  
     2     1     3 ar  
     3     1    12 1   
     4     2     4 ar  
     5     2    13 1   
     6     3     5 ar  
     7     3    14 1   
     8     4     9 ar  
     9     4    15 1   
    10     5     9 ar  
    11     5    16 1   
    12     6     7 1   
    13     6    10 1   
    14     6    17 1   
    15     6    21 1   
    16     7    11 1   
    17     7    18 1   
    18     7    19 1   
    19     8     9 1   
    20     8    10 2   
    21     8    11 1   
    22    11    20 1   
@<TRIPOS>SUBSTRUCTURE
     1 M3H         1 TEMP              0 ****  ****    0 ROOT
