@<TRIPOS>MOLECULE
M3I
   13    13     1     0     0
SMALL
abcg2


@<TRIPOS>ATOM
      1 CAA          2.5340     0.4530    -0.0380 c3         1 M3I      -0.139400
      2 NAB         -2.4240     0.5370     0.1450 nv         1 M3I      -1.022900
      3 CAC          0.0080     1.0440    -0.0410 cc         1 M3I      -0.286000
      4 NAD         -0.7260    -1.0720     0.2240 nd         1 M3I      -0.435300
      5 OAE          0.6530    -1.0410     0.1900 os         1 M3I      -0.078700
      6 CAF         -1.1090     0.1710     0.0920 cc         1 M3I       0.494900
      7 CAG          1.0740     0.2150     0.0280 cd         1 M3I       0.209300
      8 HAA          3.0250     0.1640     0.8920 hc         1 M3I       0.062367
      9 HAAA         2.9900    -0.1200    -0.8460 hc         1 M3I       0.062367
     10 HAAB         2.7290     1.5080    -0.2140 hc         1 M3I       0.062367
     11 HNAB        -2.6540     1.3740    -0.3650 hn         1 M3I       0.461000
     12 HNAA        -3.0860    -0.2040    -0.0250 hn         1 M3I       0.461000
     13 HAC          0.0050     2.1140    -0.1640 ha         1 M3I       0.150000
@<TRIPOS>BOND
     1     1     7 1   
     2     1     8 1   
     3     1     9 1   
     4     1    10 1   
     5     2     6 1   
     6     2    11 1   
     7     2    12 1   
     8     3     6 1   
     9     3     7 2   
    10     3    13 1   
    11     4     5 1   
    12     4     6 2   
    13     5     7 1   
@<TRIPOS>SUBSTRUCTURE
     1 M3I         1 TEMP              0 ****  ****    0 ROOT
