@<TRIPOS>MOLECULE
M3I
   13    13     1     0     0
SMALL
No Charge or Current Charge


@<TRIPOS>ATOM
      1 CAA          2.5310     0.4850    -0.0430 c3         1 M3I      -0.139400
      2 NAB         -2.3690     0.5500     0.0730 nv         1 M3I      -1.022900
      3 CAC         -0.0160     0.9880    -0.0490 cc         1 M3I      -0.286000
      4 NAD         -0.7910    -1.1370     0.2690 nd         1 M3I      -0.435300
      5 OAE          0.6540    -1.1220     0.2300 os         1 M3I      -0.078700
      6 CAF         -1.0960     0.1250     0.1010 cc         1 M3I       0.494900
      7 CAG          1.0650     0.1760     0.0370 cd         1 M3I       0.209300
      8 HAA          3.0430     0.1920     0.8800 hc         1 M3I       0.062367
      9 HAAA         2.9980    -0.0540    -0.8760 hc         1 M3I       0.062367
     10 HAAB         2.7000     1.5570    -0.1980 hc         1 M3I       0.062367
     11 HNAB        -2.5550     1.4720    -0.3120 hn         1 M3I       0.461000
     12 HNAA        -3.0960    -0.1500    -0.0380 hn         1 M3I       0.461000
     13 HAC         -0.0480     2.0600    -0.1970 ha         1 M3I       0.150000
@<TRIPOS>BOND
     1     1     7 1   
     2     1     8 1   
     3     1     9 1   
     4     1    10 1   
     5     2     6 1   
     6     2    11 1   
     7     2    12 1   
     8     3     6 1   
     9     3     7 2   
    10     3    13 1   
    11     4     5 1   
    12     4     6 2   
    13     5     7 1   
@<TRIPOS>SUBSTRUCTURE
     1 M3I         1 TEMP              0 ****  ****    0 ROOT
