@<TRIPOS>MOLECULE
M3J
   30    32     1     0     0
SMALL
bcc


@<TRIPOS>ATOM
      1 C10          5.6160     1.6080     0.0060 ca         1 M3J      -0.101000
      2 N12          0.7790    -1.5460     0.0790 nb         1 M3J      -0.817000
      3 C13         -0.5140    -1.1690     0.0500 ca         1 M3J       0.506600
      4 C15         -2.8480    -1.8020     0.1240 ca         1 M3J      -0.066000
      5 C02          0.1740     1.1210    -0.1550 ca         1 M3J       0.762200
      6 C04          1.6710    -0.5800     0.0120 ca         1 M3J       0.968900
      7 C06          4.1840    -0.3290     0.0430 ca         1 M3J       0.185600
      8 C07          5.3320    -1.1310     0.0590 ca         1 M3J      -0.172500
      9 C08          6.5950    -0.5680     0.0500 ca         1 M3J      -0.101000
     10 C09          6.7500     0.8110     0.0220 ca         1 M3J      -0.159000
     11 C11          4.3410     1.0580     0.0170 ca         1 M3J      -0.172500
     12 C14         -1.5260    -2.1510     0.1300 ca         1 M3J      -0.199300
     13 C16         -3.2190    -0.4480     0.0430 ca         1 M3J      -0.059900
     14 C18         -2.2660     0.5330    -0.0420 ca         1 M3J      -0.040000
     15 C19         -0.9060     0.1820    -0.0510 ca         1 M3J      -0.354600
     16 N03          1.4260     0.7310    -0.1130 nb         1 M3J      -0.849000
     17 N05          2.9660    -1.0010     0.0650 nu         1 M3J      -0.734300
     18 BR1         -5.0460     0.0080     0.0590 br         1 M3J      -0.094100
     19 H1           5.7150     2.6850    -0.0140 ha         1 M3J       0.129000
     20 H2          -3.6050    -2.5710     0.1880 ha         1 M3J       0.148000
     21 H3           5.2360    -2.2100     0.0800 ha         1 M3J       0.145000
     22 H4           7.4600    -1.2170     0.0650 ha         1 M3J       0.129000
     23 H5           7.7370     1.2550     0.0150 ha         1 M3J       0.132000
     24 H6           3.4800     1.7040     0.0030 ha         1 M3J       0.145000
     25 H7          -1.2370    -3.1910     0.2020 ha         1 M3J       0.154000
     26 H8          -2.5750     1.5700    -0.0860 ha         1 M3J       0.137000
     27 H9          -0.9500     2.7840    -0.5720 hn         1 M3J       0.437300
     28 H10          0.7370     3.0240    -0.4890 hn         1 M3J       0.437300
     29 H11          3.0330    -2.0040     0.1310 hn         1 M3J       0.454800
     30 N01         -0.0550     2.4420    -0.2780 nv         1 M3J      -0.950500
@<TRIPOS>BOND
     1     1    10 ar  
     2     1    11 ar  
     3     1    19 1   
     4     2     3 ar  
     5     2     6 ar  
     6     3    12 ar  
     7     3    15 ar  
     8     4    12 ar  
     9     4    13 ar  
    10     4    20 1   
    11     5    15 ar  
    12     5    16 ar  
    13     5    30 1   
    14     6    16 ar  
    15     6    17 1   
    16     7     8 ar  
    17     7    11 ar  
    18     7    17 1   
    19     8     9 ar  
    20     8    21 1   
    21     9    10 ar  
    22     9    22 1   
    23    10    23 1   
    24    11    24 1   
    25    12    25 1   
    26    13    14 ar  
    27    13    18 1   
    28    14    15 ar  
    29    14    26 1   
    30    17    29 1   
    31    27    30 1   
    32    28    30 1   
@<TRIPOS>SUBSTRUCTURE
     1 M3J         1 TEMP              0 ****  ****    0 ROOT
