@<TRIPOS>MOLECULE
M3J
   30    32     1     0     0
SMALL
No Charge or Current Charge


@<TRIPOS>ATOM
      1 C10          5.6820     1.5800     0.4980 ca         1 M3J      -0.083000
      2 N12          0.7530    -1.5120     0.2780 nb         1 M3J      -0.291000
      3 C13         -0.5470    -1.1670     0.1930 ca         1 M3J       0.113000
      4 C15         -2.9120    -1.7710     0.3270 ca         1 M3J      -0.048000
      5 C02          0.1350     1.0810    -0.3310 ca         1 M3J       0.433900
      6 C04          1.6630    -0.5480     0.0690 ca         1 M3J       0.442900
      7 C06          4.2250    -0.3440     0.1110 ca         1 M3J       0.324000
      8 C07          5.3420    -1.0840    -0.3150 ca         1 M3J      -0.154500
      9 C08          6.6200    -0.4970    -0.3490 ca         1 M3J      -0.083000
     10 C09          6.7890     0.8370     0.0550 ca         1 M3J      -0.141000
     11 C11          4.4060     0.9890     0.5290 ca         1 M3J      -0.154500
     12 C14         -1.5540    -2.1250     0.4110 ca         1 M3J      -0.116000
     13 C16         -3.2710    -0.4490     0.0240 ca         1 M3J      -0.059900
     14 C18         -2.2800     0.5210    -0.1980 ca         1 M3J      -0.022000
     15 C19         -0.9140     0.1640    -0.1170 ca         1 M3J      -0.224000
     16 N03          1.4200     0.7320    -0.2440 nb         1 M3J      -0.323000
     17 N05          2.9780    -0.9780     0.1400 nu         1 M3J      -0.927900
     18 Br1         -5.1180     0.0340    -0.0850 br         1 M3J      -0.094100
     19 H1           5.8130     2.6100     0.8220 ha         1 M3J       0.111000
     20 H2          -3.6810    -2.5210     0.4980 ha         1 M3J       0.130000
     21 H3           5.2220    -2.1170    -0.6300 ha         1 M3J       0.127000
     22 H4           7.4770    -1.0760    -0.6870 ha         1 M3J       0.111000
     23 H5           7.7760     1.2930     0.0310 ha         1 M3J       0.114000
     24 H6           3.5680     1.5710     0.8980 ha         1 M3J       0.127000
     25 H7          -1.2810    -3.1500     0.6480 ha         1 M3J       0.136000
     26 H8          -2.5840     1.5400    -0.4270 ha         1 M3J       0.119000
     27 H9          -0.9630     2.6680    -1.0240 hn         1 M3J       0.492500
     28 H10          0.7430     2.9220    -0.9740 hn         1 M3J       0.492500
     29 H11          3.0390    -1.9940     0.1470 hn         1 M3J       0.510000
     30 N01         -0.0610     2.3880    -0.6530 nv         1 M3J      -1.060900
@<TRIPOS>BOND
     1     1    10 ar  
     2     1    11 ar  
     3     1    19 1   
     4     2     3 ar  
     5     2     6 ar  
     6     3    12 ar  
     7     3    15 ar  
     8     4    12 ar  
     9     4    13 ar  
    10     4    20 1   
    11     5    15 ar  
    12     5    16 ar  
    13     5    30 1   
    14     6    16 ar  
    15     6    17 1   
    16     7     8 ar  
    17     7    11 ar  
    18     7    17 1   
    19     8     9 ar  
    20     8    21 1   
    21     9    10 ar  
    22     9    22 1   
    23    10    23 1   
    24    11    24 1   
    25    12    25 1   
    26    13    14 ar  
    27    13    18 1   
    28    14    15 ar  
    29    14    26 1   
    30    17    29 1   
    31    27    30 1   
    32    28    30 1   
@<TRIPOS>SUBSTRUCTURE
     1 M3J         1 TEMP              0 ****  ****    0 ROOT
