@<TRIPOS>MOLECULE
M3K
   43    44     1     0     0
SMALL
bcc


@<TRIPOS>ATOM
      1 C01          1.6550     0.8710     0.0070 ca         1 M3K       0.152600
      2 C02          2.1280    -0.1590     0.8200 ca         1 M3K      -0.158000
      3 C03          3.4860    -0.3710     1.0020 ca         1 M3K      -0.085000
      4 C04          4.4010     0.4710     0.3880 ca         1 M3K       0.048900
      5 C05          3.9690     1.5230    -0.4060 ca         1 M3K      -0.112000
      6 C06          2.6140     1.6940    -0.5850 ca         1 M3K       0.089900
      7 N07          0.3150     1.1500    -0.1940 nu         1 M3K      -0.655000
      8 C08         -0.7220     0.2510    -0.2460 ca         1 M3K       0.297600
      9 C09         -2.0470     0.6930    -0.0170 ca         1 M3K      -0.283600
     10 C10         -3.0990    -0.2370    -0.1460 ca         1 M3K       0.240100
     11 C11         -2.8530    -1.5740    -0.4390 ca         1 M3K      -0.323000
     12 C12         -1.5390    -1.9540    -0.6240 ca         1 M3K       0.235900
     13 C13         -0.4740    -1.0930    -0.5460 ca         1 M3K      -0.292000
     14 C14         -2.2860     2.1310     0.3090 c          1 M3K       0.707700
     15 N15         -3.2290     2.4260     1.2080 nt         1 M3K      -0.645000
     16 O16         -1.5890     3.0150    -0.1950 o          1 M3K      -0.647100
     17 C18         -6.7020     0.1940     0.1380 c3         1 M3K      -0.121400
     18 C19         -7.9780    -0.6330     0.0030 c3         1 M3K       0.144100
     19 C20         -9.1960     0.2640     0.1500 c3         1 M3K       0.109400
     20 O21         -8.0050    -1.7210     0.9020 oh         1 M3K      -0.576800
     21 O22        -10.3610    -0.4930    -0.0720 oh         1 M3K      -0.580800
     22 I23          6.4590     0.1660     0.6660 i          1 M3K      -0.162900
     23 C15         -5.4580    -0.6390    -0.0870 c3         1 M3K       0.149400
     24 F24          2.1870     2.7050    -1.3560 f          1 M3K      -0.133900
     25 F26         -1.2950    -3.2360    -0.9220 f          1 M3K      -0.135900
     26 O1          -4.3400     0.2370     0.0150 os         1 M3K      -0.346900
     27 H02          1.4290    -0.8050     1.3330 ha         1 M3K       0.148000
     28 H07          0.0380     2.1170    -0.3160 hn         1 M3K       0.498800
     29 H03          3.8090    -1.1850     1.6350 ha         1 M3K       0.150000
     30 H05          4.6570     2.1990    -0.8970 ha         1 M3K       0.164000
     31 H13          0.5230    -1.4500    -0.7590 ha         1 M3K       0.166000
     32 H11         -3.6410    -2.3060    -0.5340 ha         1 M3K       0.161000
     33 H151        -3.8540     1.7350     1.5830 hn         1 M3K       0.319000
     34 H152        -3.4320     3.3920     1.4060 hn         1 M3K       0.319000
     35 H181        -6.7260     1.0060    -0.5930 hc         1 M3K       0.057700
     36 H182        -6.6650     0.6580     1.1300 hc         1 M3K       0.057700
     37 H19         -8.0010    -1.0820    -0.9960 h1         1 M3K       0.089700
     38 HA1         -5.3780    -1.4390     0.6530 h1         1 M3K       0.052700
     39 HB2         -5.4830    -1.0980    -1.0810 h1         1 M3K       0.052700
     40 H201        -9.1890     0.7150     1.1540 h1         1 M3K       0.020700
     41 H202        -9.1070     1.0910    -0.5670 h1         1 M3K       0.020700
     42 H21         -7.9910    -1.3730     1.8010 ho         1 M3K       0.399000
     43 H22        -11.1180     0.0860     0.0460 ho         1 M3K       0.407000
@<TRIPOS>BOND
     1     1     2 ar  
     2     1     6 ar  
     3     1     7 1   
     4     2     3 ar  
     5     2    27 1   
     6     3     4 ar  
     7     3    29 1   
     8     4     5 ar  
     9     4    22 1   
    10     5     6 ar  
    11     5    30 1   
    12     6    24 1   
    13     7     8 1   
    14     7    28 1   
    15     8     9 ar  
    16     8    13 ar  
    17     9    10 ar  
    18     9    14 1   
    19    10    11 ar  
    20    10    26 1   
    21    11    12 ar  
    22    11    32 1   
    23    12    13 ar  
    24    12    25 1   
    25    13    31 1   
    26    14    15 1   
    27    14    16 2   
    28    15    33 1   
    29    15    34 1   
    30    17    18 1   
    31    17    23 1   
    32    17    35 1   
    33    17    36 1   
    34    18    19 1   
    35    18    20 1   
    36    18    37 1   
    37    19    21 1   
    38    19    40 1   
    39    19    41 1   
    40    20    42 1   
    41    21    43 1   
    42    23    26 1   
    43    23    38 1   
    44    23    39 1   
@<TRIPOS>SUBSTRUCTURE
     1 M3K         1 TEMP              0 ****  ****    0 ROOT
