@<TRIPOS>MOLECULE
M3K
   43    44     1     0     0
SMALL
No Charge or Current Charge


@<TRIPOS>ATOM
      1 C01          1.8110     0.8400    -0.0310 ca         1 M3K       0.291000
      2 C02          2.2920    -0.2620     0.7050 ca         1 M3K      -0.140000
      3 C03          3.6700    -0.4040     0.9590 ca         1 M3K      -0.067000
      4 C04          4.5760     0.5620     0.4910 ca         1 M3K       0.186000
      5 C05          4.1110     1.6760    -0.2210 ca         1 M3K      -0.094000
      6 C06          2.7360     1.8190    -0.4740 ca         1 M3K       0.125000
      7 N07          0.4370     1.0020    -0.2740 nu         1 M3K      -0.987000
      8 C08         -0.6650     0.1590    -0.3330 ca         1 M3K       0.436000
      9 C09         -1.9710     0.6570    -0.1100 ca         1 M3K      -0.283600
     10 C10         -3.0560    -0.2590    -0.1610 ca         1 M3K       0.240100
     11 C11         -2.8200    -1.6170    -0.4490 ca         1 M3K      -0.305000
     12 C12         -1.5280    -2.0670    -0.6980 ca         1 M3K       0.271000
     13 C13         -0.4560    -1.1850    -0.6480 ca         1 M3K      -0.274000
     14 C14         -2.1780     2.1330     0.1700 c          1 M3K       0.640700
     15 N15         -3.3210     2.5420     0.7490 nt         1 M3K      -0.578000
     16 O16         -1.3620     2.9920    -0.1280 o          1 M3K      -0.647100
     17 C18         -6.7390     0.1990     0.2530 c3         1 M3K      -0.121400
     18 C19         -8.0730    -0.5740     0.1410 c3         1 M3K       0.167300
     19 C20         -9.3100     0.3420     0.3420 c3         1 M3K       0.132600
     20 O21         -8.1080    -1.6150     1.1270 oh         1 M3K      -0.639000
     21 O22        -10.5160    -0.4410     0.3130 oh         1 M3K      -0.643000
     22 I23          6.6920     0.3400     0.8880 i          1 M3K      -0.300000
     23 C15         -5.4990    -0.6740    -0.0230 c3         1 M3K       0.172600
     24 F24          2.3050     2.9080    -1.1560 f          1 M3K      -0.169000
     25 F26         -1.3150    -3.3660    -0.9970 f          1 M3K      -0.171000
     26 O1          -4.3480     0.1870     0.0430 os         1 M3K      -0.370100
     27 H02          1.6030    -1.0010     1.1020 ha         1 M3K       0.130000
     28 H07          0.1450     1.9870    -0.3640 hn         1 M3K       0.554000
     29 H03          4.0350    -1.2570     1.5250 ha         1 M3K       0.132000
     30 H05          4.8110     2.4280    -0.5730 ha         1 M3K       0.146000
     31 H13          0.5370    -1.5550    -0.8730 ha         1 M3K       0.148000
     32 H11         -3.6260    -2.3420    -0.5000 ha         1 M3K       0.143000
     33 H151        -4.0380     1.8610     0.9510 hn         1 M3K       0.319000
     34 H152        -3.4690     3.5240     0.9160 hn         1 M3K       0.319000
     35 H181        -6.7510     1.0300    -0.4620 hc         1 M3K       0.057700
     36 H182        -6.6540     0.6380     1.2550 hc         1 M3K       0.057700
     37 H19         -8.1390    -1.0060    -0.8690 h1         1 M3K       0.089700
     38 HA1         -5.4320    -1.4720     0.7280 h1         1 M3K       0.052700
     39 HB2         -5.5860    -1.1290    -1.0190 h1         1 M3K       0.052700
     40 H201        -9.2230     0.8710     1.3000 h1         1 M3K       0.020700
     41 H202        -9.3300     1.0970    -0.4550 h1         1 M3K       0.020700
     42 H21         -9.0660    -1.8140     1.2420 ho         1 M3K       0.438000
     43 H22        -11.2700     0.1870     0.3910 ho         1 M3K       0.446000
@<TRIPOS>BOND
     1     1     2 ar  
     2     1     6 ar  
     3     1     7 1   
     4     2     3 ar  
     5     2    27 1   
     6     3     4 ar  
     7     3    29 1   
     8     4     5 ar  
     9     4    22 1   
    10     5     6 ar  
    11     5    30 1   
    12     6    24 1   
    13     7     8 1   
    14     7    28 1   
    15     8     9 ar  
    16     8    13 ar  
    17     9    10 ar  
    18     9    14 1   
    19    10    11 ar  
    20    10    26 1   
    21    11    12 ar  
    22    11    32 1   
    23    12    13 ar  
    24    12    25 1   
    25    13    31 1   
    26    14    15 1   
    27    14    16 2   
    28    15    33 1   
    29    15    34 1   
    30    17    18 1   
    31    17    23 1   
    32    17    35 1   
    33    17    36 1   
    34    18    19 1   
    35    18    20 1   
    36    18    37 1   
    37    19    21 1   
    38    19    40 1   
    39    19    41 1   
    40    20    42 1   
    41    21    43 1   
    42    23    26 1   
    43    23    38 1   
    44    23    39 1   
@<TRIPOS>SUBSTRUCTURE
     1 M3K         1 TEMP              0 ****  ****    0 ROOT
