@<TRIPOS>MOLECULE
M3L
   33    32     1     0     0
SMALL
No Charge or Current Charge


@<TRIPOS>ATOM
      1 N           -3.1990    12.5220    13.0000 n8         1 M3L      -0.903800
      2 CA          -3.0740    11.4950    14.1030 c3         1 M3L       0.020500
      3 CB          -3.9350    11.9100    15.3310 c3         1 M3L      -0.046400
      4 CG          -3.5010    13.2400    15.9990 c3         1 M3L      -0.076400
      5 CD          -4.3320    13.5810    17.2550 c3         1 M3L      -0.103400
      6 CE          -3.8890    14.9060    17.9090 c3         1 M3L       0.127800
      7 NZ          -4.6380    15.3610    19.1730 n4         1 M3L      -0.611800
      8 C           -3.3160     9.9680    13.6980 c          1 M3L       0.930600
      9 O           -4.4340     9.4740    13.8280 o          1 M3L      -0.821300
     10 OXT         -2.3650     9.3260    13.2610 o          1 M3L      -0.821300
     11 CM1         -4.4840    14.3180    20.2940 c3         1 M3L       0.105433
     12 CM2         -4.0370    16.6930    19.6490 c3         1 M3L       0.105433
     13 CM3         -6.1310    15.5710    18.8680 c3         1 M3L       0.105433
     14 H           -2.5080    12.3170    12.2700 hn         1 M3L       0.334300
     15 H2          -2.9260    13.4400    13.3620 hn         1 M3L       0.334300
     16 HA          -2.0270    11.5480    14.4300 h1         1 M3L      -0.001300
     17 HB2         -4.9890    11.9770    15.0340 hc         1 M3L       0.051200
     18 HB3         -3.8720    11.1140    16.0830 hc         1 M3L       0.051200
     19 HG2         -2.4420    13.1750    16.2770 hc         1 M3L       0.041200
     20 HG3         -3.5950    14.0630    15.2800 hc         1 M3L       0.041200
     21 HD2         -5.3900    13.6460    16.9780 hc         1 M3L       0.060200
     22 HD3         -4.2350    12.7660    17.9810 hc         1 M3L       0.060200
     23 HE2         -2.8310    14.8240    18.1690 hx         1 M3L       0.087700
     24 HE3         -3.9860    15.7040    17.1680 hx         1 M3L       0.087700
     25 HM11        -4.9850    14.6790    21.1950 hx         1 M3L       0.093256
     26 HM12        -4.9360    13.3760    19.9780 hx         1 M3L       0.093256
     27 HM13        -3.4230    14.1650    20.5020 hx         1 M3L       0.093256
     28 HM21        -4.5610    17.0260    20.5470 hx         1 M3L       0.093256
     29 HM22        -2.9780    16.5520    19.8750 hx         1 M3L       0.093256
     30 HM23        -4.1470    17.4420    18.8620 hx         1 M3L       0.093256
     31 HM31        -6.6360    15.9340    19.7650 hx         1 M3L       0.093256
     32 HM32        -6.2360    16.3050    18.0660 hx         1 M3L       0.093256
     33 HM33        -6.5750    14.6230    18.5580 hx         1 M3L       0.093256
@<TRIPOS>BOND
     1     1     2 1   
     2     1    14 1   
     3     1    15 1   
     4     2     3 1   
     5     2     8 1   
     6     2    16 1   
     7     3     4 1   
     8     3    17 1   
     9     3    18 1   
    10     4     5 1   
    11     4    19 1   
    12     4    20 1   
    13     5     6 1   
    14     5    21 1   
    15     5    22 1   
    16     6     7 1   
    17     6    23 1   
    18     6    24 1   
    19     7    11 1   
    20     7    12 1   
    21     7    13 1   
    22     8     9 1   
    23     8    10 1   
    24    11    25 1   
    25    11    26 1   
    26    11    27 1   
    27    12    28 1   
    28    12    29 1   
    29    12    30 1   
    30    13    31 1   
    31    13    32 1   
    32    13    33 1   
@<TRIPOS>SUBSTRUCTURE
     1 M3L         1 TEMP              0 ****  ****    0 ROOT
