@<TRIPOS>MOLECULE
M3L
   33    32     1     0     0
SMALL
bcc


@<TRIPOS>ATOM
      1 N           -2.9060    12.5550    13.2370 n8         1 M3L      -0.903800
      2 CA          -3.0000    11.5210    14.2580 c3         1 M3L       0.020500
      3 CB          -3.9390    11.9560    15.3800 c3         1 M3L      -0.046400
      4 CG          -3.5030    13.2450    16.0650 c3         1 M3L      -0.076400
      5 CD          -4.3860    13.5820    17.2640 c3         1 M3L      -0.103400
      6 CE          -3.9390    14.8970    17.8720 c3         1 M3L       0.127800
      7 NZ          -4.6640    15.3310    19.1220 n4         1 M3L      -0.611800
      8 C           -3.4340    10.1680    13.6340 c          1 M3L       0.930600
      9 O           -3.8370     9.2950    14.4270 o          1 M3L      -0.821300
     10 OXT         -3.3070    10.0490    12.3980 o          1 M3L      -0.821300
     11 CM1         -4.4570    14.3530    20.2260 c3         1 M3L       0.105433
     12 CM2         -4.1040    16.6480    19.5400 c3         1 M3L       0.105433
     13 CM3         -6.1220    15.4920    18.8640 c3         1 M3L       0.105433
     14 H           -2.6250    12.1100    12.3740 hn         1 M3L       0.334300
     15 H2          -2.1860    13.2240    13.4750 hn         1 M3L       0.334300
     16 HA          -2.0180    11.3210    14.7250 h1         1 M3L      -0.001300
     17 HB2         -4.9490    12.0880    14.9760 hc         1 M3L       0.051200
     18 HB3         -3.9990    11.1590    16.1230 hc         1 M3L       0.051200
     19 HG2         -2.4630    13.1500    16.3990 hc         1 M3L       0.041200
     20 HG3         -3.5270    14.0740    15.3510 hc         1 M3L       0.041200
     21 HD2         -5.4260    13.6390    16.9360 hc         1 M3L       0.060200
     22 HD3         -4.3170    12.7680    17.9890 hc         1 M3L       0.060200
     23 HE2         -2.8820    14.8530    18.1410 hx         1 M3L       0.087700
     24 HE3         -4.0690    15.7080    17.1540 hx         1 M3L       0.087700
     25 HM11        -4.9120    14.7460    21.1310 hx         1 M3L       0.093256
     26 HM12        -4.9220    13.4060    19.9720 hx         1 M3L       0.093256
     27 HM13        -3.3890    14.2140    20.3800 hx         1 M3L       0.093256
     28 HM21        -4.6150    16.9800    20.4400 hx         1 M3L       0.093256
     29 HM22        -3.0420    16.5360    19.7390 hx         1 M3L       0.093256
     30 HM23        -4.2580    17.3690    18.7410 hx         1 M3L       0.093256
     31 HM31        -6.5930    15.8930    19.7570 hx         1 M3L       0.093256
     32 HM32        -6.2600    16.1800    18.0340 hx         1 M3L       0.093256
     33 HM33        -6.5630    14.5280    18.6260 hx         1 M3L       0.093256
@<TRIPOS>BOND
     1     1     2 1   
     2     1    14 1   
     3     1    15 1   
     4     2     3 1   
     5     2     8 1   
     6     2    16 1   
     7     3     4 1   
     8     3    17 1   
     9     3    18 1   
    10     4     5 1   
    11     4    19 1   
    12     4    20 1   
    13     5     6 1   
    14     5    21 1   
    15     5    22 1   
    16     6     7 1   
    17     6    23 1   
    18     6    24 1   
    19     7    11 1   
    20     7    12 1   
    21     7    13 1   
    22     8     9 1   
    23     8    10 1   
    24    11    25 1   
    25    11    26 1   
    26    11    27 1   
    27    12    28 1   
    28    12    29 1   
    29    12    30 1   
    30    13    31 1   
    31    13    32 1   
    32    13    33 1   
@<TRIPOS>SUBSTRUCTURE
     1 M3L         1 TEMP              0 ****  ****    0 ROOT
