@<TRIPOS>MOLECULE
M3N
   33    34     1     0     0
SMALL
No Charge or Current Charge


@<TRIPOS>ATOM
      1 C1          -0.1250     0.8360    -1.2900 c6         1 M3N       0.318300
      2 C2          -1.1900     1.8760    -0.7810 c6         1 M3N       0.123300
      3 O2          -2.2700     2.0520    -1.7250 oh         1 M3N      -0.714000
      4 C3          -1.8020     1.4010     0.5730 c6         1 M3N       0.088300
      5 O3          -2.8710     2.2870     0.9770 oh         1 M3N      -0.675000
      6 C4          -2.3400    -0.0590     0.4560 c6         1 M3N       0.148300
      7 O4          -2.8500    -0.4790     1.7340 oh         1 M3N      -0.716000
      8 C5          -1.2130    -1.0010    -0.0680 c6         1 M3N       0.164300
      9 O5          -0.6990    -0.5030    -1.3370 os         1 M3N      -0.421000
     10 C6          -1.7100    -2.4670    -0.2870 c3         1 M3N       0.171600
     11 O6          -0.6890    -3.3370    -0.8190 oh         1 M3N      -0.711000
     12 C01          3.0360     0.2350     0.3450 cc         1 M3N       0.186300
     13 C02          2.0560    -0.2250    -0.4790 cd         1 M3N      -0.147000
     14 N03          1.1430     0.8080    -0.4980 na         1 M3N       0.078800
     15 N04          1.5860     1.8530     0.2770 nd         1 M3N      -0.228800
     16 N05          2.7320     1.4910     0.7950 nc         1 M3N      -0.354000
     17 O01          5.0130    -1.0330    -0.3600 oh         1 M3N      -0.664000
     18 H1           0.1870     1.1290    -2.3020 h2         1 M3N       0.114700
     19 H2          -0.6890     2.8430    -0.6210 h1         1 M3N       0.064700
     20 H3          -3.0340     2.3480    -1.1700 ho         1 M3N       0.528000
     21 H4          -1.0030     1.4050     1.3310 h1         1 M3N       0.085700
     22 H5          -2.4600     3.0790     1.3970 ho         1 M3N       0.458000
     23 H6          -3.1550    -0.0700    -0.2840 h1         1 M3N       0.060700
     24 H7          -3.3530     0.3020     2.0720 ho         1 M3N       0.522000
     25 H8          -0.3980    -1.0330     0.6690 h1         1 M3N       0.076700
     26 H9          -2.0680    -2.8570     0.6750 h1         1 M3N       0.038200
     27 H10         -2.5720    -2.4360    -0.9680 h1         1 M3N       0.038200
     28 H11         -1.1130    -4.2120    -0.9820 ho         1 M3N       0.505000
     29 H12          1.9440    -1.1560    -1.0190 h4         1 M3N       0.185000
     30 H13          4.9530     0.2360     1.2980 h1         1 M3N       0.037200
     31 H14          4.0410    -1.2680     1.4750 h1         1 M3N       0.037200
     32 H15          5.8250    -1.4620    -0.0070 ho         1 M3N       0.449000
     33 C03          4.3080    -0.4750     0.7640 c3         1 M3N       0.148300
@<TRIPOS>BOND
     1     1     2 1   
     2     1     9 1   
     3     1    14 1   
     4     1    18 1   
     5     2     3 1   
     6     2     4 1   
     7     2    19 1   
     8     3    20 1   
     9     4     5 1   
    10     4     6 1   
    11     4    21 1   
    12     5    22 1   
    13     6     7 1   
    14     6     8 1   
    15     6    23 1   
    16     7    24 1   
    17     8     9 1   
    18     8    10 1   
    19     8    25 1   
    20    10    11 1   
    21    10    26 1   
    22    10    27 1   
    23    11    28 1   
    24    12    13 2   
    25    12    16 1   
    26    12    33 1   
    27    13    14 1   
    28    13    29 1   
    29    14    15 1   
    30    15    16 2   
    31    17    32 1   
    32    17    33 1   
    33    30    33 1   
    34    31    33 1   
@<TRIPOS>SUBSTRUCTURE
     1 M3N         1 TEMP              0 ****  ****    0 ROOT
