@<TRIPOS>MOLECULE
M3N
   33    34     1     0     0
SMALL
abcg2


@<TRIPOS>ATOM
      1 C1          -0.0840     0.6320    -1.1160 c6         1 M3N       0.318300
      2 C2          -1.0090     1.7680    -0.6680 c6         1 M3N       0.123300
      3 O2          -1.8410     2.0150    -1.7740 oh         1 M3N      -0.714000
      4 C3          -1.8390     1.3820     0.5620 c6         1 M3N       0.088300
      5 O3          -2.8980     2.3010     0.7390 oh         1 M3N      -0.675000
      6 C4          -2.4560    -0.0020     0.4030 c6         1 M3N       0.148300
      7 O4          -3.0710    -0.4230     1.5950 oh         1 M3N      -0.716000
      8 C5          -1.3610    -1.0070     0.0520 c6         1 M3N       0.164300
      9 O5          -0.7160    -0.6030    -1.1470 os         1 M3N      -0.421000
     10 C6          -1.9180    -2.3940    -0.1910 c3         1 M3N       0.171600
     11 O6          -0.8490    -3.2690    -0.4610 oh         1 M3N      -0.711000
     12 C01          3.1090     0.1410     0.3930 cc         1 M3N       0.186300
     13 C02          2.2970    -0.0140    -0.6970 cd         1 M3N      -0.147000
     14 N03          1.1410     0.5740    -0.3280 na         1 M3N       0.078800
     15 N04          1.2270     1.0480     0.9020 nd         1 M3N      -0.228800
     16 N05          2.4080     0.7980     1.3440 nc         1 M3N      -0.354000
     17 O01          4.9770    -0.8380    -0.6190 oh         1 M3N      -0.664000
     18 H1           0.2330     0.8340    -2.1400 h2         1 M3N       0.114700
     19 H2          -0.4010     2.6510    -0.4280 h1         1 M3N       0.064700
     20 H3          -2.5960     2.5250    -1.4560 ho         1 M3N       0.528000
     21 H4          -1.1830     1.3670     1.4390 h1         1 M3N       0.085700
     22 H5          -2.5670     3.0720     1.2100 ho         1 M3N       0.458000
     23 H6          -3.1800     0.0220    -0.4270 h1         1 M3N       0.060700
     24 H7          -3.7480     0.2210     1.8250 ho         1 M3N       0.522000
     25 H8          -0.6380    -1.0590     0.8810 h1         1 M3N       0.076700
     26 H9          -2.4760    -2.7000     0.6990 h1         1 M3N       0.038200
     27 H10         -2.6330    -2.3520    -1.0240 h1         1 M3N       0.038200
     28 H11         -1.2040    -4.1620    -0.5070 ho         1 M3N       0.505000
     29 H12          2.4410    -0.4660    -1.6630 h4         1 M3N       0.185000
     30 H13          5.1200     0.5620     0.9180 h1         1 M3N       0.037200
     31 H14          4.5560    -1.0280     1.4100 h1         1 M3N       0.037200
     32 H15          5.8590    -1.1900    -0.4750 ho         1 M3N       0.449000
     33 C03          4.5180    -0.2970     0.5930 c3         1 M3N       0.148300
@<TRIPOS>BOND
     1     1     2 1   
     2     1     9 1   
     3     1    14 1   
     4     1    18 1   
     5     2     3 1   
     6     2     4 1   
     7     2    19 1   
     8     3    20 1   
     9     4     5 1   
    10     4     6 1   
    11     4    21 1   
    12     5    22 1   
    13     6     7 1   
    14     6     8 1   
    15     6    23 1   
    16     7    24 1   
    17     8     9 1   
    18     8    10 1   
    19     8    25 1   
    20    10    11 1   
    21    10    26 1   
    22    10    27 1   
    23    11    28 1   
    24    12    13 2   
    25    12    16 1   
    26    12    33 1   
    27    13    14 1   
    28    13    29 1   
    29    14    15 1   
    30    15    16 2   
    31    17    32 1   
    32    17    33 1   
    33    30    33 1   
    34    31    33 1   
@<TRIPOS>SUBSTRUCTURE
     1 M3N         1 TEMP              0 ****  ****    0 ROOT
