@<TRIPOS>MOLECULE
M3P
   18    17     1     0     0
SMALL
bcc


@<TRIPOS>ATOM
      1 C1          -1.8260     0.6920     0.0060 ce         1 M3P       0.108900
      2 C2          -2.3340    -0.7540    -0.0000 c          1 M3P       0.930800
      3 C3           3.0370    -0.2020    -0.0960 c          1 M3P       0.582300
      4 C4           1.8840     0.6950    -0.0570 ce         1 M3P      -0.401200
      5 C5           0.6120     0.2380    -0.0630 cf         1 M3P       0.085000
      6 C6          -0.5320     1.0940    -0.0180 cf         1 M3P      -0.375000
      7 C            4.3850     0.4720    -0.0610 c3         1 M3P      -0.193100
      8 O1          -2.8300     1.5690     0.0720 oh         1 M3P      -0.459100
      9 O2          -3.3490    -0.9510     0.6830 o          1 M3P      -0.786800
     10 O3          -1.6890    -1.5680    -0.6810 o          1 M3P      -0.786800
     11 O4           2.9360    -1.4190    -0.1530 o          1 M3P      -0.570100
     12 H4           2.0810     1.7620    -0.0200 ha         1 M3P       0.105000
     13 H5           0.4480    -0.8310    -0.1040 ha         1 M3P       0.171000
     14 H6          -0.3340     2.1630     0.0260 ha         1 M3P       0.085000
     15 H            4.4860     1.1540    -0.9080 hc         1 M3P       0.041367
     16 HA           4.4760     1.0820     0.8400 hc         1 M3P       0.041367
     17 HB           5.1970    -0.2510    -0.0870 hc         1 M3P       0.041367
     18 HO1         -2.4890     2.4740     0.0840 ho         1 M3P       0.380000
@<TRIPOS>BOND
     1     1     2 1   
     2     1     6 2   
     3     1     8 1   
     4     2     9 1   
     5     2    10 1   
     6     3     4 1   
     7     3     7 1   
     8     3    11 2   
     9     4     5 2   
    10     4    12 1   
    11     5     6 1   
    12     5    13 1   
    13     6    14 1   
    14     7    15 1   
    15     7    16 1   
    16     7    17 1   
    17     8    18 1   
@<TRIPOS>SUBSTRUCTURE
     1 M3P         1 TEMP              0 ****  ****    0 ROOT
