@<TRIPOS>MOLECULE
M3P
   18    17     1     0     0
SMALL
No Charge or Current Charge


@<TRIPOS>ATOM
      1 C1          -1.8860     0.6690     0.0550 ce         1 M3P       0.108900
      2 C2          -2.5030    -0.7550    -0.0170 c          1 M3P       0.720200
      3 C3           3.1160    -0.2000    -0.1280 c          1 M3P       0.582300
      4 C4           1.8870     0.6340    -0.0450 ce         1 M3P      -0.451200
      5 C5           0.6170     0.1460    -0.0420 cf         1 M3P       0.035000
      6 C6          -0.5550     1.0140     0.0420 cf         1 M3P      -0.425000
      7 C            4.4510     0.5410    -0.1160 c3         1 M3P      -0.193100
      8 O1          -2.7740     1.7050     0.1420 oh         1 M3P      -0.498100
      9 O2          -3.7260    -0.8690     0.0070 o          1 M3P      -0.681500
     10 O3          -1.7720    -1.7350    -0.0960 o          1 M3P      -0.681500
     11 O4           3.0600    -1.4200    -0.2010 o          1 M3P      -0.570100
     12 H4           2.0450     1.7090     0.0180 ha         1 M3P       0.155000
     13 H5           0.4800    -0.9380    -0.1050 ha         1 M3P       0.221000
     14 H6          -0.3180     2.0770     0.1010 ha         1 M3P       0.135000
     15 H            4.4540     1.2800    -0.9250 hc         1 M3P       0.041367
     16 HA           4.4980     1.1750     0.7760 hc         1 M3P       0.041367
     17 HB           5.3130    -0.1330    -0.1800 hc         1 M3P       0.041367
     18 HO1         -2.2290     2.5160     0.1780 ho         1 M3P       0.419000
@<TRIPOS>BOND
     1     1     2 1   
     2     1     6 2   
     3     1     8 1   
     4     2     9 1   
     5     2    10 1   
     6     3     4 1   
     7     3     7 1   
     8     3    11 2   
     9     4     5 2   
    10     4    12 1   
    11     5     6 1   
    12     5    13 1   
    13     6    14 1   
    14     7    15 1   
    15     7    16 1   
    16     7    17 1   
    17     8    18 1   
@<TRIPOS>SUBSTRUCTURE
     1 M3P         1 TEMP              0 ****  ****    0 ROOT
