@<TRIPOS>MOLECULE
M3S
   23    23     1     0     0
SMALL
No Charge or Current Charge


@<TRIPOS>ATOM
      1 O12         -2.0780    -0.5240     1.5630 o          1 M3S      -0.493000
      2 C11         -2.2070    -0.1640     0.3990 c          1 M3S       0.640100
      3 O1          -1.1940    -0.1320    -0.5210 os         1 M3S      -0.352200
      4 C2           0.1060    -0.4420    -0.2040 ca         1 M3S       0.127100
      5 C7           0.5090    -1.7990    -0.1620 ca         1 M3S      -0.112300
      6 C1          -0.4810    -2.9260    -0.4400 c3         1 M3S      -0.028800
      7 C6           1.8490    -2.1120     0.1350 ca         1 M3S      -0.128000
      8 C5           2.7800    -1.0900     0.3700 ca         1 M3S      -0.145000
      9 C4           2.3820     0.2550     0.3110 ca         1 M3S      -0.081000
     10 C3           1.0410     0.5920     0.0260 ca         1 M3S      -0.131600
     11 C8           0.6410     2.0440    -0.0400 c          1 M3S       0.724600
     12 O10          1.3500     2.8030    -0.6870 o          1 M3S      -0.718000
     13 O9          -0.3200     2.4220     0.6150 o          1 M3S      -0.718000
     14 C13         -3.5450     0.2190    -0.2230 c3         1 M3S      -0.152100
     15 H1          -1.0790    -2.7180    -1.3360 hc         1 M3S       0.028367
     16 H1A          0.0300    -3.8820    -0.6050 hc         1 M3S       0.028367
     17 H1B         -1.1700    -3.0600     0.4020 hc         1 M3S       0.028367
     18 H6           2.1730    -3.1500     0.1770 ha         1 M3S       0.084000
     19 H5           3.8150    -1.3390     0.5950 ha         1 M3S       0.088000
     20 H4           3.1140     1.0400     0.4890 ha         1 M3S       0.131000
     21 H13         -3.4580     1.2220    -0.6560 hc         1 M3S       0.059367
     22 H13A        -3.7140    -0.4030    -1.1090 hc         1 M3S       0.059367
     23 H13B        -4.3760     0.1510     0.4870 hc         1 M3S       0.059367
@<TRIPOS>BOND
     1     1     2 2   
     2     2     3 1   
     3     2    14 1   
     4     3     4 1   
     5     4     5 ar  
     6     4    10 ar  
     7     5     6 1   
     8     5     7 ar  
     9     6    15 1   
    10     6    16 1   
    11     6    17 1   
    12     7     8 ar  
    13     7    18 1   
    14     8     9 ar  
    15     8    19 1   
    16     9    10 ar  
    17     9    20 1   
    18    10    11 1   
    19    11    12 1   
    20    11    13 1   
    21    14    21 1   
    22    14    22 1   
    23    14    23 1   
@<TRIPOS>SUBSTRUCTURE
     1 M3S         1 TEMP              0 ****  ****    0 ROOT
