@<TRIPOS>MOLECULE
M3S
   23    23     1     0     0
SMALL
abcg2


@<TRIPOS>ATOM
      1 O12         -1.8620    -0.2640     1.5540 o          1 M3S      -0.493000
      2 C11         -2.1120    -0.0920     0.3910 c          1 M3S       0.640100
      3 O1          -1.2270    -0.3420    -0.5900 os         1 M3S      -0.352200
      4 C2           0.0870    -0.5530    -0.2300 ca         1 M3S       0.127100
      5 C7           0.5210    -1.8780    -0.1930 ca         1 M3S      -0.112300
      6 C1          -0.4240    -3.0110    -0.4660 c3         1 M3S      -0.028800
      7 C6           1.8590    -2.1150     0.0990 ca         1 M3S      -0.128000
      8 C5           2.7310    -1.0630     0.3430 ca         1 M3S      -0.145000
      9 C4           2.2690     0.2410     0.2870 ca         1 M3S      -0.081000
     10 C3           0.9330     0.5280     0.0110 ca         1 M3S      -0.131600
     11 C8           0.4830     1.9910    -0.0170 c          1 M3S       0.724600
     12 O10          1.3950     2.8340    -0.0950 o          1 M3S      -0.718000
     13 O9          -0.7380     2.2240     0.0570 o          1 M3S      -0.718000
     14 C13         -3.4230     0.3550    -0.1700 c3         1 M3S      -0.152100
     15 H1          -0.8990    -2.9210    -1.4430 hc         1 M3S       0.028367
     16 H1A          0.1040    -3.9620    -0.4410 hc         1 M3S       0.028367
     17 H1B         -1.2230    -3.0610     0.2760 hc         1 M3S       0.028367
     18 H6           2.2190    -3.1360     0.1390 ha         1 M3S       0.084000
     19 H5           3.7700    -1.2630     0.5680 ha         1 M3S       0.088000
     20 H4           2.9510     1.0620     0.4610 ha         1 M3S       0.131000
     21 H13         -3.3140     1.3630    -0.5700 hc         1 M3S       0.059367
     22 H13A        -3.7430    -0.2900    -0.9880 hc         1 M3S       0.059367
     23 H13B        -4.1880     0.3610     0.6020 hc         1 M3S       0.059367
@<TRIPOS>BOND
     1     1     2 2   
     2     2     3 1   
     3     2    14 1   
     4     3     4 1   
     5     4     5 ar  
     6     4    10 ar  
     7     5     6 1   
     8     5     7 ar  
     9     6    15 1   
    10     6    16 1   
    11     6    17 1   
    12     7     8 ar  
    13     7    18 1   
    14     8     9 ar  
    15     8    19 1   
    16     9    10 ar  
    17     9    20 1   
    18    10    11 1   
    19    11    12 1   
    20    11    13 1   
    21    14    21 1   
    22    14    22 1   
    23    14    23 1   
@<TRIPOS>SUBSTRUCTURE
     1 M3S         1 TEMP              0 ****  ****    0 ROOT
