@<TRIPOS>MOLECULE
M3T
   16    16     1     0     0
SMALL
bcc


@<TRIPOS>ATOM
      1 C7           2.7450     1.4360     0.0300 c3         1 M3T      -0.047800
      2 C3           1.6100     0.4540    -0.0110 ca         1 M3T      -0.076300
      3 C2           0.2900     0.9030    -0.0340 ca         1 M3T      -0.095000
      4 C1          -0.7700     0.0040    -0.0390 ca         1 M3T       0.038900
      5 S1          -2.4280     0.6430     0.0090 sh         1 M3T      -0.344700
      6 C6          -0.5230    -1.3650    -0.0250 ca         1 M3T      -0.115000
      7 C5           0.7870    -1.8180    -0.0320 ca         1 M3T      -0.126000
      8 C4           1.8450    -0.9180    -0.0190 ca         1 M3T      -0.117000
      9 H1           3.0180     1.6720     1.0600 hc         1 M3T       0.044033
     10 H2           3.6350     1.0400    -0.4580 hc         1 M3T       0.044033
     11 H3           2.4810     2.3730    -0.4590 hc         1 M3T       0.044033
     12 H4           0.0910     1.9680    -0.0550 ha         1 M3T       0.144000
     13 H5          -2.9210    -0.0370    -1.0320 hs         1 M3T       0.204800
     14 H6          -1.3440    -2.0700    -0.0160 ha         1 M3T       0.137000
     15 H7           0.9840    -2.8820    -0.0380 ha         1 M3T       0.133000
     16 H8           2.8640    -1.2880    -0.0180 ha         1 M3T       0.132000
@<TRIPOS>BOND
     1     1     2 1   
     2     1     9 1   
     3     1    10 1   
     4     1    11 1   
     5     2     3 ar  
     6     2     8 ar  
     7     3     4 ar  
     8     3    12 1   
     9     4     5 1   
    10     4     6 ar  
    11     5    13 1   
    12     6     7 ar  
    13     6    14 1   
    14     7     8 ar  
    15     7    15 1   
    16     8    16 1   
@<TRIPOS>SUBSTRUCTURE
     1 M3T         1 TEMP              0 ****  ****    0 ROOT
