@<TRIPOS>MOLECULE
M3T
   16    16     1     0     0
SMALL
No Charge or Current Charge


@<TRIPOS>ATOM
      1 C7           2.8000     1.4380     0.0890 c3         1 M3T      -0.047800
      2 C3           1.6270     0.4750    -0.0090 ca         1 M3T      -0.076300
      3 C2           0.3090     0.9670    -0.0910 ca         1 M3T      -0.077000
      4 C1          -0.7830     0.0840    -0.1790 ca         1 M3T      -0.088000
      5 S1          -2.4440     0.7240    -0.2840 sh         1 M3T      -0.217800
      6 C6          -0.5500    -1.3030    -0.1820 ca         1 M3T      -0.097000
      7 C5           0.7610    -1.8020    -0.0970 ca         1 M3T      -0.108000
      8 C4           1.8470    -0.9150    -0.0100 ca         1 M3T      -0.099000
      9 H1           3.0140     1.6870     1.1350 hc         1 M3T       0.044033
     10 H2           3.7100     1.0070    -0.3460 hc         1 M3T       0.044033
     11 H3           2.5940     2.3740    -0.4430 hc         1 M3T       0.044033
     12 H4           0.1320     2.0400    -0.0870 ha         1 M3T       0.126000
     13 H5          -3.0640    -0.4790    -0.3440 hs         1 M3T       0.204800
     14 H6          -1.3850    -1.9980    -0.2490 ha         1 M3T       0.119000
     15 H7           0.9350    -2.8760    -0.0980 ha         1 M3T       0.115000
     16 H8           2.8590    -1.3090     0.0570 ha         1 M3T       0.114000
@<TRIPOS>BOND
     1     1     2 1   
     2     1     9 1   
     3     1    10 1   
     4     1    11 1   
     5     2     3 ar  
     6     2     8 ar  
     7     3     4 ar  
     8     3    12 1   
     9     4     5 1   
    10     4     6 ar  
    11     5    13 1   
    12     6     7 ar  
    13     6    14 1   
    14     7     8 ar  
    15     7    15 1   
    16     8    16 1   
@<TRIPOS>SUBSTRUCTURE
     1 M3T         1 TEMP              0 ****  ****    0 ROOT
