@<TRIPOS>MOLECULE
M3U
   39    41     1     0     0
SMALL
abcg2


@<TRIPOS>ATOM
      1 N1          20.8280    29.1940    21.4440 ns         1 M3U      -0.496900
      2 N3          26.6950    26.9670    25.7070 nb         1 M3U      -0.613000
      3 C4          23.6520    28.8570    19.6790 c5         1 M3U      -0.118400
      4 C5          25.0950    28.3740    19.7210 c5         1 M3U       0.162300
      5 C6          25.1480    26.4230    18.3940 c3         1 M3U       0.391300
      6 C7          25.5210    28.7520    21.1260 c5         1 M3U       0.114000
      7 C8          24.2140    28.1490    23.1910 c          1 M3U       0.632700
      8 C10         25.7000    27.0620    24.8720 ca         1 M3U       0.366900
      9 C13         27.3340    29.2220    24.9940 ca         1 M3U      -0.123000
     10 C1          19.7500    30.0770    21.8210 c3         1 M3U       0.095300
     11 C2          22.1120    29.5450    21.5630 c          1 M3U       0.597100
     12 O1          22.4770    30.6330    21.9820 o          1 M3U      -0.594100
     13 C3          23.1170    28.5080    21.0730 c5         1 M3U       0.034700
     14 O2          25.1690    26.9470    19.6340 os         1 M3U      -0.489000
     15 F1          24.8540    25.1160    18.5260 f          1 M3U      -0.120000
     16 F2          26.3870    26.4790    17.8310 f          1 M3U      -0.120000
     17 N2          24.3100    28.5170    21.9030 n          1 M3U      -0.393800
     18 O3          23.1500    27.7880    23.6770 o          1 M3U      -0.594100
     19 C9          25.4460    28.1890    24.0300 ca         1 M3U      -0.186600
     20 C11         27.5070    28.0440    25.7670 ca         1 M3U       0.160000
     21 C12         28.6390    28.3010    26.5360 cc         1 M3U      -0.181100
     22 N4          29.0220    29.5300    26.1810 na         1 M3U       0.022500
     23 N5          28.2770    30.1250    25.2650 nc         1 M3U      -0.267400
     24 C14         26.2590    29.2880    24.0880 ca         1 M3U      -0.006000
     25 H4          20.5980    28.2680    21.1250 hn         1 M3U       0.317500
     26 H6          23.6610    29.9390    19.5270 hc         1 M3U       0.071700
     27 H7          23.0540    28.4180    18.8820 hc         1 M3U       0.071700
     28 H8          25.7280    28.8470    18.9680 h1         1 M3U       0.073700
     29 H9          24.4430    26.8920    17.7010 h3         1 M3U       0.047700
     30 H10         26.3610    28.1580    21.4820 h1         1 M3U       0.073700
     31 H11         25.8130    29.8050    21.1400 h1         1 M3U       0.073700
     32 H1          18.8080    29.5690    21.6350 h1         1 M3U       0.042033
     33 H2          19.7950    30.3370    22.8790 h1         1 M3U       0.042033
     34 H3          19.7640    30.9990    21.2400 h1         1 M3U       0.042033
     35 H5          22.6690    27.5100    21.0710 h1         1 M3U       0.076700
     36 H13         29.1690    27.7190    27.2710 h4         1 M3U       0.242000
     37 H14         29.8220    30.0250    26.5510 hn         1 M3U       0.376000
     38 H15         26.0840    30.1740    23.4890 ha         1 M3U       0.140000
     39 H12         25.0310    26.2100    24.8140 h4         1 M3U       0.036100
@<TRIPOS>BOND
     1     1    10 1   
     2     1    11 1   
     3     1    25 1   
     4     2     8 ar  
     5     2    20 ar  
     6     3     4 1   
     7     3    13 1   
     8     3    26 1   
     9     3    27 1   
    10     4     6 1   
    11     4    14 1   
    12     4    28 1   
    13     5    14 1   
    14     5    15 1   
    15     5    16 1   
    16     5    29 1   
    17     6    17 1   
    18     6    30 1   
    19     6    31 1   
    20     7    17 1   
    21     7    18 2   
    22     7    19 1   
    23     8    19 ar  
    24     8    39 1   
    25     9    20 ar  
    26     9    23 2   
    27     9    24 ar  
    28    10    32 1   
    29    10    33 1   
    30    10    34 1   
    31    11    12 2   
    32    11    13 1   
    33    13    17 1   
    34    13    35 1   
    35    19    24 ar  
    36    20    21 2   
    37    21    22 1   
    38    21    36 1   
    39    22    23 1   
    40    22    37 1   
    41    24    38 1   
@<TRIPOS>SUBSTRUCTURE
     1 M3U         1 TEMP              0 ****  ****    0 ROOT
