@<TRIPOS>MOLECULE
M3U
   39    41     1     0     0
SMALL
No Charge or Current Charge


@<TRIPOS>ATOM
      1 N1          20.8910    29.1580    21.0380 ns         1 M3U      -0.496900
      2 N3          26.8110    27.2320    26.1420 nb         1 M3U      -0.613000
      3 C4          23.7970    29.0600    19.8550 c5         1 M3U      -0.118400
      4 C5          25.1520    28.3060    19.7740 c5         1 M3U       0.162300
      5 C6          24.4690    26.5500    18.1660 c3         1 M3U       0.391300
      6 C7          25.6680    28.4070    21.2380 c5         1 M3U       0.114000
      7 C8          24.3600    27.9670    23.3630 c          1 M3U       0.632700
      8 C10         25.7680    27.1760    25.2710 ca         1 M3U       0.366900
      9 C13         27.5120    29.2770    25.0550 ca         1 M3U      -0.123000
     10 C1          19.6260    29.8590    21.2670 c3         1 M3U       0.095300
     11 C2          22.0730    29.4670    21.6790 c          1 M3U       0.597100
     12 O1          22.1660    30.3620    22.5100 o          1 M3U      -0.594100
     13 C3          23.2000    28.5050    21.1830 c5         1 M3U       0.034700
     14 O2          24.9060    26.9020    19.4910 os         1 M3U      -0.489000
     15 F1          24.2450    25.2200    18.0890 f          1 M3U      -0.120000
     16 F2          25.4280    26.8300    17.2530 f          1 M3U      -0.120000
     17 N2          24.4170    28.4660    22.0440 n          1 M3U      -0.393800
     18 O3          23.3290    27.4670    23.7960 o          1 M3U      -0.594100
     19 C9          25.5550    28.1320    24.2510 ca         1 M3U      -0.186600
     20 C11         27.6370    28.2770    25.9870 ca         1 M3U       0.160000
     21 C12         28.7840    28.5960    26.7520 cc         1 M3U      -0.181100
     22 N4          29.2780    29.7890    26.2230 na         1 M3U       0.022500
     23 N5          28.5050    30.2560    25.1490 nc         1 M3U      -0.267400
     24 C14         26.4430    29.2310    24.1510 ca         1 M3U      -0.006000
     25 H4          20.9100    28.3980    20.3680 hn         1 M3U       0.317500
     26 H6          23.9670    30.1420    19.9170 hc         1 M3U       0.071700
     27 H7          23.1450    28.8930    18.9910 hc         1 M3U       0.071700
     28 H8          25.8560    28.7260    19.0420 h1         1 M3U       0.073700
     29 H9          23.5500    27.0780    17.8950 h3         1 M3U       0.047700
     30 H10         26.2990    27.5480    21.5070 h1         1 M3U       0.073700
     31 H11         26.2620    29.3200    21.3600 h1         1 M3U       0.073700
     32 H1          18.8430    29.4210    20.6340 h1         1 M3U       0.042033
     33 H2          19.3350    29.7620    22.3210 h1         1 M3U       0.042033
     34 H3          19.7420    30.9210    21.0160 h1         1 M3U       0.042033
     35 H5          22.7850    27.4960    21.0550 h1         1 M3U       0.076700
     36 H13         29.2630    28.1020    27.5880 h4         1 M3U       0.242000
     37 H14         30.0970    30.3030    26.5390 hn         1 M3U       0.376000
     38 H15         26.2960    30.0320    23.4310 ha         1 M3U       0.140000
     39 H12         25.0950    26.3260    25.3910 h4         1 M3U       0.036100
@<TRIPOS>BOND
     1     1    10 1   
     2     1    11 1   
     3     1    25 1   
     4     2     8 ar  
     5     2    20 ar  
     6     3     4 1   
     7     3    13 1   
     8     3    26 1   
     9     3    27 1   
    10     4     6 1   
    11     4    14 1   
    12     4    28 1   
    13     5    14 1   
    14     5    15 1   
    15     5    16 1   
    16     5    29 1   
    17     6    17 1   
    18     6    30 1   
    19     6    31 1   
    20     7    17 1   
    21     7    18 2   
    22     7    19 1   
    23     8    19 ar  
    24     8    39 1   
    25     9    20 ar  
    26     9    23 2   
    27     9    24 ar  
    28    10    32 1   
    29    10    33 1   
    30    10    34 1   
    31    11    12 2   
    32    11    13 1   
    33    13    17 1   
    34    13    35 1   
    35    19    24 ar  
    36    20    21 2   
    37    21    22 1   
    38    21    36 1   
    39    22    23 1   
    40    22    37 1   
    41    24    38 1   
@<TRIPOS>SUBSTRUCTURE
     1 M3U         1 TEMP              0 ****  ****    0 ROOT
