@<TRIPOS>MOLECULE
M3V
   39    40     1     0     0
SMALL
bcc


@<TRIPOS>ATOM
      1 N           75.0720    -1.8290    12.5990 n8         1 M3V      -0.871800
      2 CA          73.6630    -2.2020    12.4980 c3         1 M3V       0.145200
      3 C           71.8160    -0.7760     9.8400 c          1 M3V       0.918600
      4 O           71.8900    -0.7090     8.6020 o          1 M3V      -0.818800
      5 CB1         73.3420    -3.4400    13.3430 c3         1 M3V       0.157100
      6 CG1         73.8290    -4.7130    12.6570 c3         1 M3V      -0.136100
      7 OG1         73.9160    -3.2970    14.6220 oh         1 M3V      -0.566800
      8 CG2         70.7590     0.6150    16.3340 ca         1 M3V      -0.000800
      9 CD1         71.2310    -0.5940    16.8680 ca         1 M3V      -0.122000
     10 CD2         70.0160     1.4670    17.1630 ca         1 M3V      -0.122000
     11 CE1         70.9660    -0.9340    18.1780 ca         1 M3V      -0.099000
     12 CE2         69.7460     1.1340    18.4750 ca         1 M3V      -0.099000
     13 CZ          70.2210    -0.0730    18.9870 ca         1 M3V      -0.045000
     14 C1          72.8430    -1.0070    12.8920 cc         1 M3V       0.534900
     15 C2          71.8770     0.9810    12.6370 c          1 M3V       0.678700
     16 CA2         71.6670     0.4030    13.9930 cd         1 M3V       0.061400
     17 CN          69.9490    -0.4270    20.3410 cg         1 M3V       0.254800
     18 N2          72.2830    -0.8340    14.0410 nd         1 M3V      -0.644300
     19 N3          72.6870     0.0540    12.0230 n          1 M3V      -0.378300
     20 N40         69.7280    -0.7150    21.4350 n1         1 M3V      -0.405800
     21 O2          71.4560     2.0090    12.1530 o          1 M3V      -0.583500
     22 H           75.6460    -2.6240    12.3460 hn         1 M3V       0.339300
     23 H2          75.2930    -1.1160    11.9150 hn         1 M3V       0.339300
     24 HA          73.3600    -2.4640    11.4750 h1         1 M3V       0.075700
     25 H8          72.2470    -3.5000    13.4080 h1         1 M3V       0.057700
     26 H9          70.5960     2.0160    14.7050 ha         1 M3V       0.136000
     27 HG21        73.5520    -5.5890    13.2470 hc         1 M3V       0.036700
     28 HG22        73.3740    -4.8270    11.6720 hc         1 M3V       0.036700
     29 HG23        74.9130    -4.7280    12.5360 hc         1 M3V       0.036700
     30 HG1         73.6450    -4.0540    15.1500 ho         1 M3V       0.384000
     31 H14         71.8110    -1.2640    16.2510 ha         1 M3V       0.159000
     32 H15         69.6460     2.4050    16.7690 ha         1 M3V       0.159000
     33 H16         71.3370    -1.8670    18.5790 ha         1 M3V       0.133000
     34 H17         69.1700     1.8040    19.1000 ha         1 M3V       0.133000
     35 H18         73.8880    -0.3770    10.3730 h1         1 M3V       0.045700
     36 H19         72.9160     1.0640    10.2440 h1         1 M3V       0.045700
     37 OXT         71.0080    -1.4090    10.5400 o          1 M3V      -0.818800
     38 CA3         72.9010     0.0330    10.5960 c3         1 M3V      -0.064000
     39 CB2         71.0010     1.0450    14.9680 ce         1 M3V      -0.089200
@<TRIPOS>BOND
     1     1     2 1   
     2     1    22 1   
     3     1    23 1   
     4     2     5 1   
     5     2    14 1   
     6     2    24 1   
     7     3     4 1   
     8     3    37 1   
     9     3    38 1   
    10     5     6 1   
    11     5     7 1   
    12     5    25 1   
    13     6    27 1   
    14     6    28 1   
    15     6    29 1   
    16     7    30 1   
    17     8     9 ar  
    18     8    10 ar  
    19     8    39 1   
    20     9    11 ar  
    21     9    31 1   
    22    10    12 ar  
    23    10    32 1   
    24    11    13 ar  
    25    11    33 1   
    26    12    13 ar  
    27    12    34 1   
    28    13    17 1   
    29    14    18 2   
    30    14    19 1   
    31    15    16 1   
    32    15    19 1   
    33    15    21 2   
    34    16    18 1   
    35    16    39 2   
    36    17    20 3   
    37    19    38 1   
    38    26    39 1   
    39    35    38 1   
    40    36    38 1   
@<TRIPOS>SUBSTRUCTURE
     1 M3V         1 TEMP              0 ****  ****    0 ROOT
