@<TRIPOS>MOLECULE
M3V
   39    40     1     0     0
SMALL
No Charge or Current Charge


@<TRIPOS>ATOM
      1 N           75.2860    -1.7720    12.7100 n8         1 M3V      -0.871800
      2 CA          73.8190    -2.1110    12.5950 c3         1 M3V       0.145200
      3 C           71.8220    -0.8460     9.6240 c          1 M3V       0.918600
      4 O           71.4200    -0.3560     8.5750 o          1 M3V      -0.818800
      5 CB1         73.4450    -3.4430    13.3370 c3         1 M3V       0.157100
      6 CG1         74.0200    -4.6970    12.6400 c3         1 M3V      -0.136100
      7 OG1         73.9070    -3.4470    14.6980 oh         1 M3V      -0.566800
      8 CG2         70.6600     0.6450    16.3770 ca         1 M3V      -0.000800
      9 CD1         70.6770    -0.7020    16.7930 ca         1 M3V      -0.122000
     10 CD2         70.3940     1.6480    17.3300 ca         1 M3V      -0.122000
     11 CE1         70.4520    -1.0380    18.1400 ca         1 M3V      -0.099000
     12 CE2         70.1700     1.3160    18.6780 ca         1 M3V      -0.099000
     13 CZ          70.2000    -0.0300    19.0890 ca         1 M3V      -0.045000
     14 C1          72.8680    -0.9420    12.9230 cc         1 M3V       0.534900
     15 C2          71.6270     0.9100    12.5410 c          1 M3V       0.678700
     16 CA2         71.5970     0.4360    13.9380 cd         1 M3V       0.061400
     17 CN          69.9700    -0.3720    20.4650 cg         1 M3V       0.254800
     18 N2          72.3710    -0.7020    14.1480 nd         1 M3V      -0.644300
     19 N3          72.4660    -0.0130    11.9690 n          1 M3V      -0.378300
     20 N40         69.7770    -0.6420    21.5840 n1         1 M3V      -0.405800
     21 O2          71.0660     1.8580    12.0000 o          1 M3V      -0.583500
     22 H           75.8410    -2.6030    12.4860 hn         1 M3V       0.339300
     23 H2          75.5400    -1.0850    11.9930 hn         1 M3V       0.339300
     24 HA          73.6490    -2.3370    11.5350 h1         1 M3V       0.075700
     25 H8          72.3490    -3.5360    13.3180 h1         1 M3V       0.057700
     26 H9          70.3690     1.9590    14.6600 ha         1 M3V       0.136000
     27 HG21        73.6890    -5.6090    13.1490 hc         1 M3V       0.036700
     28 HG22        73.6770    -4.7510    11.6000 hc         1 M3V       0.036700
     29 HG23        75.1170    -4.6840    12.6400 hc         1 M3V       0.036700
     30 HG1         73.6310    -4.2990    15.0930 ho         1 M3V       0.384000
     31 H14         70.8530    -1.4980    16.0740 ha         1 M3V       0.159000
     32 H15         70.3680     2.6930    17.0260 ha         1 M3V       0.159000
     33 H16         70.4710    -2.0840    18.4430 ha         1 M3V       0.133000
     34 H17         69.9720     2.1060    19.4010 ha         1 M3V       0.133000
     35 H18         73.8020    -0.4090    10.3560 h1         1 M3V       0.045700
     36 H19         72.7850     1.0170    10.1400 h1         1 M3V       0.045700
     37 OXT         71.4630    -1.9460    10.0270 o          1 M3V      -0.818800
     38 CA3         72.7890    -0.0170    10.5080 c3         1 M3V      -0.064000
     39 CB2         70.8790     1.0420    14.9530 ce         1 M3V      -0.089200
@<TRIPOS>BOND
     1     1     2 1   
     2     1    22 1   
     3     1    23 1   
     4     2     5 1   
     5     2    14 1   
     6     2    24 1   
     7     3     4 1   
     8     3    37 1   
     9     3    38 1   
    10     5     6 1   
    11     5     7 1   
    12     5    25 1   
    13     6    27 1   
    14     6    28 1   
    15     6    29 1   
    16     7    30 1   
    17     8     9 ar  
    18     8    10 ar  
    19     8    39 1   
    20     9    11 ar  
    21     9    31 1   
    22    10    12 ar  
    23    10    32 1   
    24    11    13 ar  
    25    11    33 1   
    26    12    13 ar  
    27    12    34 1   
    28    13    17 1   
    29    14    18 2   
    30    14    19 1   
    31    15    16 1   
    32    15    19 1   
    33    15    21 2   
    34    16    18 1   
    35    16    39 2   
    36    17    20 3   
    37    19    38 1   
    38    26    39 1   
    39    35    38 1   
    40    36    38 1   
@<TRIPOS>SUBSTRUCTURE
     1 M3V         1 TEMP              0 ****  ****    0 ROOT
