@<TRIPOS>MOLECULE
M3W
   33    35     1     0     0
SMALL
abcg2


@<TRIPOS>ATOM
      1 CAD         -2.2870    -1.1330    -0.3500 ca         1 M3W      -0.069000
      2 CAC         -3.6550    -1.3390    -0.3550 ca         1 M3W      -0.119500
      3 CAB         -4.5410    -0.3130    -0.0260 ca         1 M3W      -0.049300
      4 CAA         -6.0210    -0.5490    -0.0040 c3         1 M3W      -0.052800
      5 CAG         -4.0080     0.9300     0.3060 ca         1 M3W      -0.119500
      6 CAF         -2.6390     1.1470     0.3060 ca         1 M3W      -0.069000
      7 CAE         -1.7600     0.1170    -0.0250 ca         1 M3W      -0.157900
      8 CAH         -0.2990     0.3010    -0.0400 cc         1 M3W       0.563500
      9 NAI          0.4740    -0.7200     0.0800 nd         1 M3W      -0.636100
     10 CAJ          1.8310    -0.5260     0.0490 ca         1 M3W       0.190400
     11 CAO          2.6680    -1.6570     0.1610 ca         1 M3W      -0.065300
     12 CAP          2.0740    -3.0240     0.3120 c3         1 M3W      -0.034800
     13 CAN          4.0360    -1.4620     0.1310 ca         1 M3W      -0.080000
     14 CAM          4.6000    -0.1880    -0.0020 ca         1 M3W      -0.130000
     15 CAL          3.7880     0.9170    -0.1080 ca         1 M3W      -0.045000
     16 CAK          2.4010     0.7500    -0.0840 ca         1 M3W      -0.200600
     17 CAQ          1.5170     1.9010    -0.2140 c          1 M3W       0.577600
     18 OAR          1.8750     3.0580    -0.3450 o          1 M3W      -0.540000
     19 NAS          0.1800     1.5710    -0.1920 ns         1 M3W      -0.427400
     20 HAD         -1.6180    -1.9420    -0.6110 ha         1 M3W       0.125500
     21 HAC         -4.0420    -2.3130    -0.6270 ha         1 M3W       0.117500
     22 HAA1        -6.3450    -0.8620     0.9910 hc         1 M3W       0.047033
     23 HAA2        -6.5740     0.3550    -0.2560 hc         1 M3W       0.047033
     24 HAA3        -6.3110    -1.3340    -0.7000 hc         1 M3W       0.047033
     25 HAG         -4.6700     1.7460     0.5720 ha         1 M3W       0.117500
     26 HAF         -2.2780     2.1250     0.5960 ha         1 M3W       0.125500
     27 HAS         -0.4680     2.3340    -0.3330 hn         1 M3W       0.331500
     28 HAP1         1.4000    -3.2610    -0.5110 hc         1 M3W       0.045700
     29 HAP2         2.8530    -3.7840     0.3460 hc         1 M3W       0.045700
     30 HAP3         1.4870    -3.1000     1.2290 hc         1 M3W       0.045700
     31 HAN          4.6910    -2.3200     0.2120 ha         1 M3W       0.115000
     32 HAM          5.6760    -0.0780    -0.0190 ha         1 M3W       0.119000
     33 HAL          4.2100     1.9070    -0.2130 ha         1 M3W       0.136000
@<TRIPOS>BOND
     1     1     2 ar  
     2     1     7 ar  
     3     1    20 1   
     4     2     3 ar  
     5     2    21 1   
     6     3     4 1   
     7     3     5 ar  
     8     4    22 1   
     9     4    23 1   
    10     4    24 1   
    11     5     6 ar  
    12     5    25 1   
    13     6     7 ar  
    14     6    26 1   
    15     7     8 1   
    16     8     9 2   
    17     8    19 1   
    18     9    10 1   
    19    10    11 ar  
    20    10    16 ar  
    21    11    12 1   
    22    11    13 ar  
    23    12    28 1   
    24    12    29 1   
    25    12    30 1   
    26    13    14 ar  
    27    13    31 1   
    28    14    15 ar  
    29    14    32 1   
    30    15    16 ar  
    31    15    33 1   
    32    16    17 1   
    33    17    18 2   
    34    17    19 1   
    35    19    27 1   
@<TRIPOS>SUBSTRUCTURE
     1 M3W         1 TEMP              0 ****  ****    0 ROOT
