@<TRIPOS>MOLECULE
M3Y
   41    43     1     0     0
SMALL
No Charge or Current Charge


@<TRIPOS>ATOM
      1 C4           4.2550    -1.4930    -0.4490 ca         1 M3Y       0.028500
      2 C5           4.9220    -0.3940     0.1280 ca         1 M3Y      -0.324500
      3 C6           4.1840     0.5980     0.8020 ca         1 M3Y       0.028500
      4 N1          -0.0430     1.4010     0.0010 nc         1 M3Y      -0.817000
      5 C7           2.7860     0.4900     0.8900 ca         1 M3Y      -0.190000
      6 C8          -3.6180     1.0320    -0.1470 c          1 M3Y       0.653900
      7 C9          -5.7560    -0.3940     0.0040 ca         1 M3Y      -0.018000
      8 C10         -6.7380     0.5950    -0.2330 ca         1 M3Y      -0.146000
      9 C11         -8.1020     0.2530    -0.2540 ca         1 M3Y      -0.083000
     10 C12         -8.4990    -1.0760    -0.0390 ca         1 M3Y      -0.131000
     11 N3           6.8770     0.6690    -1.3140 n8         1 M3Y      -1.003100
     12 C13         -7.5320    -2.0650     0.1990 ca         1 M3Y      -0.083000
     13 C14         -6.1690    -1.7240     0.2200 ca         1 M3Y      -0.146000
     14 N4          -1.5100    -0.3560     0.2370 nd         1 M3Y      -0.645800
     15 C           -1.2620     1.7950    -0.1220 cd         1 M3Y       0.780400
     16 O            7.2270     0.5500     1.1200 o          1 M3Y      -0.549000
     17 C1          -0.2810     0.1000     0.2300 cc         1 M3Y       0.859900
     18 C2           2.1170    -0.5960     0.3030 ca         1 M3Y       0.385000
     19 C3           2.8570    -1.5890    -0.3530 ca         1 M3Y      -0.190000
     20 N5          -2.2290     0.8210    -0.0090 n          1 M3Y      -0.110500
     21 N6          -4.3590    -0.1240     0.0420 ns         1 M3Y      -0.123000
     22 O1           7.2810    -1.5430    -0.3720 o          1 M3Y      -0.549000
     23 O2          -4.1020     2.1290    -0.4160 o          1 M3Y      -0.614100
     24 S            6.7040    -0.2590     0.0190 sy         1 M3Y       1.135600
     25 H1           4.8100    -2.2750    -0.9670 ha         1 M3Y       0.136000
     26 H2           4.6850     1.4510     1.2590 ha         1 M3Y       0.136000
     27 H3           2.2250     1.2510     1.4230 ha         1 M3Y       0.136000
     28 H4           0.3930    -1.6840     0.3070 hn         1 M3Y       0.512000
     29 H5          -6.4680     1.6320    -0.4020 ha         1 M3Y       0.129000
     30 H6          -8.8510     1.0200    -0.4380 ha         1 M3Y       0.116000
     31 H7          -9.5550    -1.3390    -0.0560 ha         1 M3Y       0.118000
     32 H8           7.5250     0.1040    -1.8570 hn         1 M3Y       0.471000
     33 H9           5.9850     0.5370    -1.7840 hn         1 M3Y       0.471000
     34 H10         -7.8380    -3.0960     0.3660 ha         1 M3Y       0.116000
     35 H11         -5.4300    -2.5010     0.4060 ha         1 M3Y       0.129000
     36 H12         -0.6280     3.5670    -0.7280 hn         1 M3Y       0.520500
     37 H13         -2.3450     3.3710    -0.6880 hn         1 M3Y       0.520500
     38 H14          2.3490    -2.4400    -0.7980 ha         1 M3Y       0.136000
     39 H15         -3.7850    -0.9320     0.2470 hn         1 M3Y       0.192000
     40 N2           0.7400    -0.7370     0.3980 nu         1 M3Y      -0.925900
     41 N           -1.4330     3.0970    -0.3360 nv         1 M3Y      -1.059900
@<TRIPOS>BOND
     1     1     2 ar  
     2     1    19 ar  
     3     1    25 1   
     4     2     3 ar  
     5     2    24 1   
     6     3     5 ar  
     7     3    26 1   
     8     4    15 2   
     9     4    17 1   
    10     5    18 ar  
    11     5    27 1   
    12     6    20 1   
    13     6    21 1   
    14     6    23 2   
    15     7     8 ar  
    16     7    13 ar  
    17     7    21 1   
    18     8     9 ar  
    19     8    29 1   
    20     9    10 ar  
    21     9    30 1   
    22    10    12 ar  
    23    10    31 1   
    24    11    24 1   
    25    11    32 1   
    26    11    33 1   
    27    12    13 ar  
    28    12    34 1   
    29    13    35 1   
    30    14    17 2   
    31    14    20 1   
    32    15    20 1   
    33    15    41 1   
    34    16    24 2   
    35    17    40 1   
    36    18    19 ar  
    37    18    40 1   
    38    19    38 1   
    39    21    39 1   
    40    22    24 2   
    41    28    40 1   
    42    36    41 1   
    43    37    41 1   
@<TRIPOS>SUBSTRUCTURE
     1 M3Y         1 TEMP              0 ****  ****    0 ROOT
