@<TRIPOS>MOLECULE
M3Y
   41    43     1     0     0
SMALL
abcg2


@<TRIPOS>ATOM
      1 C4           4.1290    -1.7280    -0.0010 ca         1 M3Y       0.028500
      2 C5           4.7790    -0.5010     0.0420 ca         1 M3Y      -0.324500
      3 C6           4.0430     0.6760     0.1020 ca         1 M3Y       0.028500
      4 N1          -0.1380     1.5460     0.1080 nc         1 M3Y      -0.817000
      5 C7           2.6630     0.6410     0.1160 ca         1 M3Y      -0.190000
      6 C8          -3.6610     1.1350     0.0530 c          1 M3Y       0.653900
      7 C9          -5.6130    -0.3790    -0.0250 ca         1 M3Y      -0.018000
      8 C10         -6.6370     0.5680    -0.0410 ca         1 M3Y      -0.146000
      9 C11         -7.9590     0.1440    -0.0970 ca         1 M3Y      -0.083000
     10 C12         -8.2840    -1.2030    -0.1370 ca         1 M3Y      -0.131000
     11 N3           6.8510     0.2960    -1.3930 n8         1 M3Y      -1.003100
     12 C13         -7.2620    -2.1430    -0.1190 ca         1 M3Y      -0.083000
     13 C14         -5.9400    -1.7370    -0.0650 ca         1 M3Y      -0.146000
     14 N4          -1.6130    -0.1560     0.0870 nd         1 M3Y      -0.645800
     15 C           -1.3510     2.0610     0.1080 cd         1 M3Y       0.780400
     16 O            6.9780     0.5320     1.0690 o          1 M3Y      -0.549000
     17 C1          -0.3590     0.2130     0.0950 cc         1 M3Y       0.859900
     18 C2           1.9930    -0.5910     0.0720 ca         1 M3Y       0.385000
     19 C3           2.7510    -1.7690     0.0140 ca         1 M3Y      -0.190000
     20 N5          -2.2680     1.0500     0.0960 n          1 M3Y      -0.110500
     21 N6          -4.2480    -0.0750     0.0300 ns         1 M3Y      -0.123000
     22 O1           7.0440    -1.7870     0.1400 o          1 M3Y      -0.549000
     23 O2          -4.2090     2.2200     0.0410 o          1 M3Y      -0.614100
     24 S            6.5350    -0.4230     0.0620 sy         1 M3Y       1.135600
     25 H1           4.6870    -2.6530    -0.0470 ha         1 M3Y       0.136000
     26 H2           4.5400     1.6370     0.1370 ha         1 M3Y       0.136000
     27 H3           2.1070     1.5630     0.1630 ha         1 M3Y       0.136000
     28 H4           0.2810    -1.6810     0.0670 hn         1 M3Y       0.512000
     29 H5          -6.4240     1.6240    -0.0110 ha         1 M3Y       0.129000
     30 H6          -8.7420     0.8900    -0.1100 ha         1 M3Y       0.116000
     31 H7          -9.3190    -1.5170    -0.1800 ha         1 M3Y       0.118000
     32 H8           7.7930     0.6760    -1.4200 hn         1 M3Y       0.471000
     33 H9           6.7030    -0.3290    -2.1790 hn         1 M3Y       0.471000
     34 H10         -7.4890    -3.2000    -0.1490 ha         1 M3Y       0.116000
     35 H11         -5.1520    -2.4810    -0.0530 ha         1 M3Y       0.129000
     36 H12         -0.8760     4.0060     0.0060 hn         1 M3Y       0.520500
     37 H13         -2.5710     3.6860    -0.0050 hn         1 M3Y       0.520500
     38 H14          2.2500    -2.7280    -0.0210 ha         1 M3Y       0.136000
     39 H15         -3.6160    -0.8650     0.0460 hn         1 M3Y       0.192000
     40 N2           0.6250    -0.7320     0.0870 nu         1 M3Y      -0.925900
     41 N           -1.6330     3.3600     0.1500 nv         1 M3Y      -1.059900
@<TRIPOS>BOND
     1     1     2 ar  
     2     1    19 ar  
     3     1    25 1   
     4     2     3 ar  
     5     2    24 1   
     6     3     5 ar  
     7     3    26 1   
     8     4    15 2   
     9     4    17 1   
    10     5    18 ar  
    11     5    27 1   
    12     6    20 1   
    13     6    21 1   
    14     6    23 2   
    15     7     8 ar  
    16     7    13 ar  
    17     7    21 1   
    18     8     9 ar  
    19     8    29 1   
    20     9    10 ar  
    21     9    30 1   
    22    10    12 ar  
    23    10    31 1   
    24    11    24 1   
    25    11    32 1   
    26    11    33 1   
    27    12    13 ar  
    28    12    34 1   
    29    13    35 1   
    30    14    17 2   
    31    14    20 1   
    32    15    20 1   
    33    15    41 1   
    34    16    24 2   
    35    17    40 1   
    36    18    19 ar  
    37    18    40 1   
    38    19    38 1   
    39    21    39 1   
    40    22    24 2   
    41    28    40 1   
    42    36    41 1   
    43    37    41 1   
@<TRIPOS>SUBSTRUCTURE
     1 M3Y         1 TEMP              0 ****  ****    0 ROOT
