@<TRIPOS>MOLECULE
M3Z
   33    34     1     0     0
SMALL
bcc


@<TRIPOS>ATOM
      1 CAC          0.6950     0.1100     1.6870 c3         1 M3Z       0.150100
      2 CAF          5.4200    -0.2100     0.4270 ca         1 M3Z      -0.132000
      3 CAG          4.2610    -0.9470     0.6420 ca         1 M3Z      -0.113500
      4 CAH          5.3940     0.8960    -0.4090 ca         1 M3Z      -0.124000
      5 CAI          3.0500     0.5200    -0.8150 ca         1 M3Z      -0.113500
      6 CAJ         -3.0760    -1.2840     0.0700 c6         1 M3Z      -0.285700
      7 CAK          1.8220    -1.4190     0.2190 c3         1 M3Z       0.219100
      8 CAL         -0.5690    -1.3490     0.2750 c3         1 M3Z       0.124500
      9 CAQ          3.0670    -0.5940     0.0220 ca         1 M3Z      -0.093300
     10 CAR         -1.7890    -0.5330    -0.0230 c2         1 M3Z       0.494300
     11 CAS          4.2040     1.2600    -1.0290 ca         1 M3Z      -0.132000
     12 CAT         -4.2720    -0.5470    -0.4480 c          1 M3Z       0.727500
     13 CAU         -2.8280     1.4260    -0.6570 c          1 M3Z       0.841900
     14 NAO         -1.6870     0.6960    -0.3360 ne         1 M3Z      -0.597100
     15 NAP         -4.0440     0.7690    -0.7350 ns         1 M3Z      -0.631500
     16 NAX          0.6440    -0.5960     0.4230 n3         1 M3Z      -0.700600
     17 OAD         -5.3610    -1.0540    -0.5800 o          1 M3Z      -0.585500
     18 OAE         -2.7610     2.6090    -0.8860 o          1 M3Z      -0.548500
     19 H1           0.7000    -0.5690     2.5530 h1         1 M3Z       0.039033
     20 H2           1.5970     0.7200     1.7360 h1         1 M3Z       0.039033
     21 H3          -0.1560     0.7820     1.7840 h1         1 M3Z       0.039033
     22 H5           4.2850    -1.8030     1.3070 ha         1 M3Z       0.138000
     23 H6           6.2940     1.4750    -0.5750 ha         1 M3Z       0.130000
     24 H7           2.1200     0.8120    -1.2880 ha         1 M3Z       0.138000
     25 H8          -2.9910    -2.2490    -0.4350 hc         1 M3Z       0.103700
     26 H9          -3.2590    -1.5240     1.1240 hc         1 M3Z       0.103700
     27 H10          1.6620    -2.0260    -0.6770 h1         1 M3Z       0.035700
     28 H11          1.9820    -2.1330     1.0440 h1         1 M3Z       0.035700
     29 H12         -0.7930    -1.9970     1.1410 h1         1 M3Z       0.048700
     30 H13         -0.4700    -2.0400    -0.5710 h1         1 M3Z       0.048700
     31 H14          4.1750     2.1250    -1.6800 ha         1 M3Z       0.131000
     32 H15         -4.8370     1.3250    -1.0340 hn         1 M3Z       0.340500
     33 H4           6.3390    -0.4970     0.9220 ha         1 M3Z       0.131000
@<TRIPOS>BOND
     1     1    16 1   
     2     1    19 1   
     3     1    20 1   
     4     1    21 1   
     5     2     3 ar  
     6     2     4 ar  
     7     2    33 1   
     8     3     9 ar  
     9     3    22 1   
    10     4    11 ar  
    11     4    23 1   
    12     5     9 ar  
    13     5    11 ar  
    14     5    24 1   
    15     6    10 1   
    16     6    12 1   
    17     6    25 1   
    18     6    26 1   
    19     7     9 1   
    20     7    16 1   
    21     7    27 1   
    22     7    28 1   
    23     8    10 1   
    24     8    16 1   
    25     8    29 1   
    26     8    30 1   
    27    10    14 2   
    28    11    31 1   
    29    12    15 1   
    30    12    17 2   
    31    13    14 1   
    32    13    15 1   
    33    13    18 2   
    34    15    32 1   
@<TRIPOS>SUBSTRUCTURE
     1 M3Z         1 TEMP              0 ****  ****    0 ROOT
