@<TRIPOS>MOLECULE
M3Z
   33    34     1     0     0
SMALL
No Charge or Current Charge


@<TRIPOS>ATOM
      1 CAC          0.6270    -0.2090     1.4230 c3         1 M3Z       0.150100
      2 CAF          5.2810    -0.2450     0.9780 ca         1 M3Z      -0.114000
      3 CAG          4.0930    -0.9730     0.7920 ca         1 M3Z      -0.095500
      4 CAH          5.5410     0.8920     0.1940 ca         1 M3Z      -0.106000
      5 CAI          3.4220     0.5730    -0.9630 ca         1 M3Z      -0.095500
      6 CAJ         -2.8020    -0.7760     0.8400 c6         1 M3Z      -0.285700
      7 CAK          1.8640    -1.3550    -0.3870 c3         1 M3Z       0.219100
      8 CAL         -0.6100    -1.2960    -0.4520 c3         1 M3Z       0.124500
      9 CAQ          3.1560    -0.5680    -0.1800 ca         1 M3Z      -0.093300
     10 CAR         -1.9120    -0.4890    -0.3360 c2         1 M3Z       0.494300
     11 CAS          4.6100     1.3000    -0.7770 ca         1 M3Z      -0.114000
     12 CAT         -4.2100    -0.5130     0.3930 c          1 M3Z       0.585000
     13 CAU         -3.3700     1.1960    -1.1160 c          1 M3Z       0.699400
     14 NAO         -2.1900     0.4500    -1.1960 ne         1 M3Z      -0.597100
     15 NAP         -4.3340     0.6060    -0.3560 ns         1 M3Z      -0.497500
     16 NAX          0.6430    -0.6010    -0.0090 n3         1 M3Z      -0.700600
     17 OAD         -5.1380    -1.2770     0.5910 o          1 M3Z      -0.510000
     18 OAE         -3.5740     2.2360    -1.7110 o          1 M3Z      -0.473000
     19 H1           0.5620    -1.0940     2.0700 h1         1 M3Z       0.039033
     20 H2           1.5350     0.3460     1.6920 h1         1 M3Z       0.039033
     21 H3          -0.2270     0.4440     1.6430 h1         1 M3Z       0.039033
     22 H5           3.9000    -1.8510     1.4050 ha         1 M3Z       0.120000
     23 H6           6.4600     1.4550     0.3380 ha         1 M3Z       0.112000
     24 H7           2.7030     0.8950    -1.7130 ha         1 M3Z       0.120000
     25 H8          -2.7020    -1.7920     1.2410 hc         1 M3Z       0.103700
     26 H9          -2.5470    -0.0320     1.6030 hc         1 M3Z       0.103700
     27 H10          1.8130    -1.6330    -1.4490 h1         1 M3Z       0.035700
     28 H11          1.9150    -2.2930     0.1830 h1         1 M3Z       0.035700
     29 H12         -0.7240    -2.2340     0.1080 h1         1 M3Z       0.048700
     30 H13         -0.5070    -1.5850    -1.5060 h1         1 M3Z       0.048700
     31 H14          4.8090     2.1810    -1.3840 ha         1 M3Z       0.113000
     32 H15         -5.2690     0.9570    -0.4900 hn         1 M3Z       0.340500
     33 H4           6.0010    -0.5620     1.7300 ha         1 M3Z       0.113000
@<TRIPOS>BOND
     1     1    16 1   
     2     1    19 1   
     3     1    20 1   
     4     1    21 1   
     5     2     3 ar  
     6     2     4 ar  
     7     2    33 1   
     8     3     9 ar  
     9     3    22 1   
    10     4    11 ar  
    11     4    23 1   
    12     5     9 ar  
    13     5    11 ar  
    14     5    24 1   
    15     6    10 1   
    16     6    12 1   
    17     6    25 1   
    18     6    26 1   
    19     7     9 1   
    20     7    16 1   
    21     7    27 1   
    22     7    28 1   
    23     8    10 1   
    24     8    16 1   
    25     8    29 1   
    26     8    30 1   
    27    10    14 2   
    28    11    31 1   
    29    12    15 1   
    30    12    17 2   
    31    13    14 1   
    32    13    15 1   
    33    13    18 2   
    34    15    32 1   
@<TRIPOS>SUBSTRUCTURE
     1 M3Z         1 TEMP              0 ****  ****    0 ROOT
