@<TRIPOS>MOLECULE
M40
   70    72     1     0     0
SMALL
No Charge or Current Charge


@<TRIPOS>ATOM
      1 O01          2.5190     0.7550     1.8060 o          1 M40      -0.561000
      2 C02          2.6290     0.0240     0.8350 c          1 M40       0.644100
      3 O03          3.7270    -0.7090     0.5110 os         1 M40      -0.460100
      4 C04          4.8680    -0.6090     1.3780 c3         1 M40       0.231900
      5 C05          5.9730    -1.4990     0.8240 ca         1 M40      -0.090300
      6 C06          6.8990    -0.9870    -0.1080 ca         1 M40      -0.084500
      7 C07          7.9190    -1.8090    -0.6180 ca         1 M40      -0.118500
      8 C08          8.0200    -3.1470    -0.2010 ca         1 M40      -0.106000
      9 C09          7.0990    -3.6630     0.7250 ca         1 M40      -0.118500
     10 C10          6.0780    -2.8430     1.2360 ca         1 M40      -0.084500
     11 N11          1.6600    -0.2050    -0.0990 ns         1 M40      -0.475900
     12 C12          0.3080     0.3970    -0.1030 c3         1 M40       0.040700
     13 C13          0.2530     1.6450    -1.0330 c3         1 M40      -0.096400
     14 C14          1.1100     2.8780    -0.6050 c6         1 M40      -0.049700
     15 C15          1.1210     3.9560    -1.7260 c6         1 M40      -0.076400
     16 C16          1.9760     5.1850    -1.3280 c6         1 M40      -0.069900
     17 C17          1.4890     5.7970     0.0060 c6         1 M40      -0.074400
     18 C18          1.4710     4.7360     1.1320 c6         1 M40      -0.069900
     19 C19          0.6170     3.5070     0.7320 c6         1 M40      -0.076400
     20 C20         -0.7480    -0.6670    -0.5270 c          1 M40       0.603100
     21 N21         -2.0590    -0.3010    -0.3020 ns         1 M40      -0.484900
     22 C22         -3.2400    -1.0870    -0.6570 c3         1 M40       0.115700
     23 C23         -4.0140    -1.5810     0.6000 c3         1 M40      -0.077400
     24 C24         -3.2250    -2.5110     1.5780 c5         1 M40      -0.145700
     25 C25         -4.1430    -3.2920     2.5600 c5         1 M40      -0.094400
     26 C26         -4.3530    -2.2510     3.6940 c5         1 M40       0.102000
     27 N27         -3.0410    -1.6110     3.7140 ns         1 M40      -0.525900
     28 C28         -2.3370    -1.7070     2.5430 c          1 M40       0.567000
     29 O29         -1.1630    -1.3940     2.4500 o          1 M40      -0.552000
     30 O32         -0.4480    -1.7450    -1.0290 o          1 M40      -0.628100
     31 H1           5.2260     0.4280     1.4310 h1         1 M40       0.052200
     32 H3           6.8260     0.0470    -0.4370 ha         1 M40       0.116500
     33 H10          0.5550     1.3230    -2.0380 hc         1 M40       0.068200
     34 H11         -0.7910     1.9670    -1.1320 hc         1 M40       0.068200
     35 H12          2.1410     2.5220    -0.4700 hc         1 M40       0.041700
     36 H13          1.5150     3.5260    -2.6570 hc         1 M40       0.047950
     37 H14          0.0940     4.2800    -1.9440 hc         1 M40       0.047950
     38 H15          3.0300     4.8880    -1.2360 hc         1 M40       0.030450
     39 H16          1.9340     5.9410    -2.1230 hc         1 M40       0.030450
     40 H17          2.1400     6.6340     0.2930 hc         1 M40       0.032700
     41 H18          0.4810     6.2160    -0.1250 hc         1 M40       0.032700
     42 H19          2.4980     4.4140     1.3540 hc         1 M40       0.030450
     43 H20          1.0750     5.1790     2.0550 hc         1 M40       0.030450
     44 H21         -0.4360     3.8070     0.6360 hc         1 M40       0.047950
     45 H22          0.6540     2.7700     1.5440 hc         1 M40       0.047950
     46 H23         -2.2170     0.6330     0.0680 hn         1 M40       0.344500
     47 H24         -2.8870    -1.9930    -1.1650 h1         1 M40       0.060700
     48 H25         -4.3960    -0.7180     1.1570 hc         1 M40       0.075700
     49 H26         -4.8990    -2.1210     0.2440 hc         1 M40       0.075700
     50 H27         -2.5970    -3.1680     0.9670 hc         1 M40       0.075700
     51 H28         -5.0850    -3.6310     2.1120 hc         1 M40       0.052700
     52 H29         -3.6300    -4.1800     2.9450 hc         1 M40       0.052700
     53 H30         -5.1440    -1.5320     3.4410 h1         1 M40       0.040700
     54 H31         -4.6100    -2.7290     4.6490 h1         1 M40       0.040700
     55 H32         -2.5940    -1.1910     4.5210 hn         1 M40       0.319500
     56 H35         -4.5910    -1.9130    -2.8250 ho         1 M40       0.414000
     57 S1          -4.8560     1.2860    -1.0900 s6         1 M40       1.322600
     58 O2          -5.2960     1.9710    -2.3160 o          1 M40      -0.685867
     59 O3          -3.7490     1.9630    -0.3940 o          1 M40      -0.685867
     60 O4          -5.9590     0.8760    -0.2060 o          1 M40      -0.685867
     61 C30         -4.1020    -0.3210    -1.7110 c3         1 M40      -0.101700
     62 H4           4.6130    -0.9310     2.3960 h1         1 M40       0.052200
     63 H2           8.6310    -1.4080    -1.3360 ha         1 M40       0.109000
     64 H5           8.8100    -3.7820    -0.5960 ha         1 M40       0.106000
     65 H6           7.1750    -4.7000     1.0470 ha         1 M40       0.109000
     66 H7           5.3670    -3.2510     1.9510 ha         1 M40       0.116500
     67 H8           1.8920    -0.8810    -0.8150 hn         1 M40       0.340500
     68 H9           0.0450     0.6910     0.9210 h1         1 M40       0.092700
     69 H34         -3.4270     0.0200    -2.5030 h2         1 M40       0.060700
     70 O31         -5.0800    -1.2260    -2.3220 oh         1 M40      -0.610000
@<TRIPOS>BOND
     1     1     2 2   
     2     2     3 1   
     3     2    11 1   
     4     3     4 1   
     5     4     5 1   
     6     4    31 1   
     7     4    62 1   
     8     5     6 ar  
     9     5    10 ar  
    10     6     7 ar  
    11     6    32 1   
    12     7     8 ar  
    13     7    63 1   
    14     8     9 ar  
    15     8    64 1   
    16     9    10 ar  
    17     9    65 1   
    18    10    66 1   
    19    11    12 1   
    20    11    67 1   
    21    12    13 1   
    22    12    20 1   
    23    12    68 1   
    24    13    14 1   
    25    13    33 1   
    26    13    34 1   
    27    14    15 1   
    28    14    19 1   
    29    14    35 1   
    30    15    16 1   
    31    15    36 1   
    32    15    37 1   
    33    16    17 1   
    34    16    38 1   
    35    16    39 1   
    36    17    18 1   
    37    17    40 1   
    38    17    41 1   
    39    18    19 1   
    40    18    42 1   
    41    18    43 1   
    42    19    44 1   
    43    19    45 1   
    44    20    21 1   
    45    20    30 2   
    46    21    22 1   
    47    21    46 1   
    48    22    23 1   
    49    22    47 1   
    50    22    61 1   
    51    23    24 1   
    52    23    48 1   
    53    23    49 1   
    54    24    25 1   
    55    24    28 1   
    56    24    50 1   
    57    25    26 1   
    58    25    51 1   
    59    25    52 1   
    60    26    27 1   
    61    26    53 1   
    62    26    54 1   
    63    27    28 1   
    64    27    55 1   
    65    28    29 2   
    66    56    70 1   
    67    57    58 1   
    68    57    59 1   
    69    57    60 1   
    70    57    61 1   
    71    61    69 1   
    72    61    70 1   
@<TRIPOS>SUBSTRUCTURE
     1 M40         1 TEMP              0 ****  ****    0 ROOT
