@<TRIPOS>MOLECULE
M40
   70    72     1     0     0
SMALL
abcg2


@<TRIPOS>ATOM
      1 O01          2.3950     0.3560     1.8530 o          1 M40      -0.561000
      2 C02          2.5710    -0.1860     0.7810 c          1 M40       0.644100
      3 O03          3.6960    -0.8340     0.4520 os         1 M40      -0.460100
      4 C04          4.7490    -0.8430     1.4210 c3         1 M40       0.231900
      5 C05          5.9080    -1.5570     0.7930 ca         1 M40      -0.090300
      6 C06          6.7290    -0.8950    -0.1170 ca         1 M40      -0.084500
      7 C07          7.7860    -1.5570    -0.7240 ca         1 M40      -0.118500
      8 C08          8.0340    -2.8920    -0.4250 ca         1 M40      -0.106000
      9 C09          7.2230    -3.5580     0.4820 ca         1 M40      -0.118500
     10 C10          6.1630    -2.8920     1.0860 ca         1 M40      -0.084500
     11 N11          1.6940    -0.2200    -0.2370 ns         1 M40      -0.475900
     12 C12          0.3640     0.3210    -0.1550 c3         1 M40       0.040700
     13 C13          0.2070     1.5930    -1.0030 c3         1 M40      -0.096400
     14 C14          0.9820     2.7980    -0.4750 c6         1 M40      -0.049700
     15 C15          0.9830     3.9210    -1.5140 c6         1 M40      -0.076400
     16 C16          1.7170     5.1630    -1.0170 c6         1 M40      -0.069900
     17 C17          1.1420     5.6560     0.3060 c6         1 M40      -0.074400
     18 C18          1.1470     4.5470     1.3510 c6         1 M40      -0.069900
     19 C19          0.4140     3.3050     0.8510 c6         1 M40      -0.076400
     20 C20         -0.6450    -0.7310    -0.6140 c          1 M40       0.603100
     21 N21         -1.8960    -0.4750    -0.2130 ns         1 M40      -0.484900
     22 C22         -3.0520    -1.2530    -0.5850 c3         1 M40       0.115700
     23 C23         -3.9920    -1.4290     0.6030 c3         1 M40      -0.077400
     24 C24         -3.5560    -2.4600     1.6520 c5         1 M40      -0.145700
     25 C25         -4.4690    -2.3750     2.8790 c5         1 M40      -0.094400
     26 C26         -3.7910    -1.3150     3.7520 c5         1 M40       0.102000
     27 N27         -2.3990    -1.4740     3.3920 ns         1 M40      -0.525900
     28 C28         -2.1860    -2.1720     2.2610 c          1 M40       0.567000
     29 O29         -1.1000    -2.5180     1.8280 o          1 M40      -0.552000
     30 O32         -0.3220    -1.6810    -1.3100 o          1 M40      -0.628100
     31 H1           5.0230     0.1800     1.6870 h1         1 M40       0.052200
     32 H3           6.5420     0.1460    -0.3510 ha         1 M40       0.116500
     33 H10          0.5320     1.3620    -2.0240 hc         1 M40       0.068200
     34 H11         -0.8540     1.8560    -1.0730 hc         1 M40       0.068200
     35 H12          2.0250     2.4990    -0.3100 hc         1 M40       0.041700
     36 H13          1.4350     3.5650    -2.4440 hc         1 M40       0.047950
     37 H14         -0.0530     4.1880    -1.7560 hc         1 M40       0.047950
     38 H15          2.7780     4.9260    -0.8840 hc         1 M40       0.030450
     39 H16          1.6680     5.9530    -1.7710 hc         1 M40       0.030450
     40 H17          1.7060     6.5210     0.6660 hc         1 M40       0.032700
     41 H18          0.1140     6.0010     0.1490 hc         1 M40       0.032700
     42 H19          2.1820     4.2800     1.5920 hc         1 M40       0.030450
     43 H20          0.6940     4.8960     2.2820 hc         1 M40       0.030450
     44 H21         -0.6480     3.5430     0.7140 hc         1 M40       0.047950
     45 H22          0.4630     2.5240     1.6130 hc         1 M40       0.047950
     46 H23         -2.0840     0.4030     0.2470 hn         1 M40       0.344500
     47 H24         -2.6850    -2.2360    -0.8930 h1         1 M40       0.060700
     48 H25         -4.1610    -0.4600     1.0810 hc         1 M40       0.075700
     49 H26         -4.9630    -1.7550     0.2300 hc         1 M40       0.075700
     50 H27         -3.5500    -3.4540     1.2000 hc         1 M40       0.075700
     51 H28         -5.4970    -2.1140     2.6300 hc         1 M40       0.052700
     52 H29         -4.4840    -3.3300     3.4070 hc         1 M40       0.052700
     53 H30         -4.1520    -0.3060     3.5270 h1         1 M40       0.040700
     54 H31         -3.9440    -1.4910     4.8170 h1         1 M40       0.040700
     55 H32         -1.6430    -1.1210     3.9570 hn         1 M40       0.319500
     56 H35         -4.2640    -2.1960    -2.8610 ho         1 M40       0.414000
     57 S1          -4.5550     0.9510    -1.5630 s6         1 M40       1.322600
     58 O2          -4.7160     1.5200    -2.9130 o          1 M40      -0.685867
     59 O3          -3.6430     1.7420    -0.7090 o          1 M40      -0.685867
     60 O4          -5.8370     0.6400    -0.9070 o          1 M40      -0.685867
     61 C30         -3.7200    -0.6540    -1.8350 c3         1 M40      -0.101700
     62 H4           4.4260    -1.3540     2.3300 h1         1 M40       0.052200
     63 H2           8.4180    -1.0320    -1.4280 ha         1 M40       0.109000
     64 H5           8.8600    -3.4090    -0.8960 ha         1 M40       0.106000
     65 H6           7.4130    -4.5960     0.7220 ha         1 M40       0.109000
     66 H7           5.5320    -3.4180     1.7930 ha         1 M40       0.116500
     67 H8           1.9310    -0.7460    -1.0640 hn         1 M40       0.340500
     68 H9           0.1630     0.5480     0.8930 h1         1 M40       0.092700
     69 H34         -2.9270    -0.4450    -2.5650 h2         1 M40       0.060700
     70 O31         -4.7020    -1.4990    -2.3620 oh         1 M40      -0.610000
@<TRIPOS>BOND
     1     1     2 2   
     2     2     3 1   
     3     2    11 1   
     4     3     4 1   
     5     4     5 1   
     6     4    31 1   
     7     4    62 1   
     8     5     6 ar  
     9     5    10 ar  
    10     6     7 ar  
    11     6    32 1   
    12     7     8 ar  
    13     7    63 1   
    14     8     9 ar  
    15     8    64 1   
    16     9    10 ar  
    17     9    65 1   
    18    10    66 1   
    19    11    12 1   
    20    11    67 1   
    21    12    13 1   
    22    12    20 1   
    23    12    68 1   
    24    13    14 1   
    25    13    33 1   
    26    13    34 1   
    27    14    15 1   
    28    14    19 1   
    29    14    35 1   
    30    15    16 1   
    31    15    36 1   
    32    15    37 1   
    33    16    17 1   
    34    16    38 1   
    35    16    39 1   
    36    17    18 1   
    37    17    40 1   
    38    17    41 1   
    39    18    19 1   
    40    18    42 1   
    41    18    43 1   
    42    19    44 1   
    43    19    45 1   
    44    20    21 1   
    45    20    30 2   
    46    21    22 1   
    47    21    46 1   
    48    22    23 1   
    49    22    47 1   
    50    22    61 1   
    51    23    24 1   
    52    23    48 1   
    53    23    49 1   
    54    24    25 1   
    55    24    28 1   
    56    24    50 1   
    57    25    26 1   
    58    25    51 1   
    59    25    52 1   
    60    26    27 1   
    61    26    53 1   
    62    26    54 1   
    63    27    28 1   
    64    27    55 1   
    65    28    29 2   
    66    56    70 1   
    67    57    58 1   
    68    57    59 1   
    69    57    60 1   
    70    57    61 1   
    71    61    69 1   
    72    61    70 1   
@<TRIPOS>SUBSTRUCTURE
     1 M40         1 TEMP              0 ****  ****    0 ROOT
