@<TRIPOS>MOLECULE
M41
   68    70     1     0     0
SMALL
No Charge or Current Charge


@<TRIPOS>ATOM
      1 C7          -5.1220     0.1720     0.3170 c3         1 M41      -0.278100
      2 S8          -3.9650     1.5220     0.0090 s6         1 M41       1.214100
      3 C4          -5.7390    -0.4140    -0.9470 ca         1 M41      -0.078300
      4 C5          -5.0950    -1.4680    -1.6250 ca         1 M41      -0.086000
      5 C6          -5.6640    -2.0100    -2.7910 ca         1 M41      -0.108500
      6 C1          -6.8780    -1.5040    -3.2830 ca         1 M41      -0.100000
      7 C2          -7.5250    -0.4540    -2.6080 ca         1 M41      -0.108500
      8 C33         -6.9560     0.0890    -1.4430 ca         1 M41      -0.086000
      9 O12         -2.7820     1.0080    -0.6820 o          1 M41      -0.525500
     10 O13         -4.6770     2.6880    -0.5170 o          1 M41      -0.525500
     11 N9          -3.4720     1.9520     1.5450 n7         1 M41      -0.920300
     12 C10         -2.6040     1.0180     2.3380 c3         1 M41       0.178500
     13 C14         -2.6510     1.4340     3.8450 c3         1 M41      -0.074700
     14 C15         -1.9930     0.3780     4.7660 c3         1 M41      -0.089100
     15 C16         -2.0760     2.8450     4.1310 c3         1 M41      -0.089100
     16 C11         -1.1140     0.8740     1.8040 c          1 M41       0.615100
     17 O22         -0.4300     1.8570     1.5260 o          1 M41      -0.602100
     18 N17         -0.5400    -0.4170     1.6920 n          1 M41      -0.393800
     19 C18          0.9020    -0.6170     1.3710 c5         1 M41       0.026700
     20 C23          1.2830    -0.3810    -0.1280 c          1 M41       0.592100
     21 O32          0.5320    -0.2870    -1.0910 o          1 M41      -0.582100
     22 C19          1.0700    -2.1250     1.7260 c5         1 M41      -0.082400
     23 C20         -0.2760    -2.7240     1.2450 c5         1 M41      -0.094400
     24 C21         -1.3000    -1.6870     1.7730 c5         1 M41       0.106000
     25 N24          2.6520    -0.2690    -0.2340 ns         1 M41      -0.505900
     26 C25          3.3620    -0.0650    -1.4960 c3         1 M41       0.142300
     27 C26          4.8650    -0.2580    -1.3180 ca         1 M41      -0.074300
     28 C27          5.4670    -1.5430    -1.3690 ca         1 M41      -0.066300
     29 C34          4.6490    -2.8130    -1.6030 c3         1 M41       0.193100
     30 N35          4.4510    -3.0760    -3.0410 n8         1 M41      -0.990200
     31 C28          6.8620    -1.6590    -1.1940 ca         1 M41      -0.107000
     32 C29          7.6530    -0.5210    -0.9670 ca         1 M41      -0.099000
     33 C30          7.0560     0.7450    -0.9130 ca         1 M41       0.119000
     34 Cl3          8.0440     2.1720    -0.6260 cl         1 M41      -0.201000
     35 C31          5.6700     0.8770    -1.0860 ca         1 M41      -0.097000
     36 H7          -5.9040     0.5720     0.9720 h1         1 M41       0.092200
     37 H7A         -4.5690    -0.6040     0.8550 h1         1 M41       0.092200
     38 H5          -4.1540    -1.8650    -1.2510 ha         1 M41       0.118500
     39 H6          -5.1630    -2.8230    -3.3120 ha         1 M41       0.115500
     40 H1          -7.3180    -1.9240    -4.1850 ha         1 M41       0.113000
     41 H2          -8.4650    -0.0610    -2.9880 ha         1 M41       0.115500
     42 H33         -7.4630     0.9020    -0.9270 ha         1 M41       0.118500
     43 HN9         -4.3760     2.0390     2.0060 hn         1 M41       0.516000
     44 H10         -3.0540     0.0200     2.3050 h1         1 M41       0.079700
     45 H14         -3.7100     1.4650     4.1310 hc         1 M41       0.038700
     46 H15         -0.9180     0.2860     4.5640 hc         1 M41       0.041033
     47 H15A        -2.1150     0.6560     5.8200 hc         1 M41       0.041033
     48 H15B        -2.4570    -0.6050     4.6260 hc         1 M41       0.041033
     49 H16         -2.5510     3.6060     3.5010 hc         1 M41       0.041033
     50 H16A        -2.2520     3.1250     5.1770 hc         1 M41       0.041033
     51 H16B        -0.9950     2.8790     3.9550 hc         1 M41       0.041033
     52 H18          1.5440     0.0160     1.9980 h1         1 M41       0.075700
     53 H19          1.9380    -2.5910     1.2460 hc         1 M41       0.055200
     54 H19A         1.1910    -2.2590     2.8080 hc         1 M41       0.055200
     55 H20         -0.3130    -2.7930     0.1510 hc         1 M41       0.065200
     56 H20A        -0.4590    -3.7290     1.6390 hc         1 M41       0.065200
     57 H21         -1.5830    -1.9040     2.8110 h1         1 M41       0.055200
     58 H21A        -2.2080    -1.6740     1.1540 h1         1 M41       0.055200
     59 HN24         3.1960    -0.3530     0.6160 hn         1 M41       0.312500
     60 H25          2.9760    -0.7630    -2.2500 h1         1 M41       0.075200
     61 H25A         3.1560     0.9520    -1.8550 h1         1 M41       0.075200
     62 H34          5.1720    -3.6730    -1.1610 h1         1 M41       0.035700
     63 H34A         3.6680    -2.7370    -1.1140 h1         1 M41       0.035700
     64 HN35         5.3690    -3.2150    -3.4790 hn         1 M41       0.398000
     65 HN3A         3.9870    -3.9860    -3.1530 hn         1 M41       0.398000
     66 H28          7.3360    -2.6380    -1.2320 ha         1 M41       0.114000
     67 H29          8.7280    -0.6210    -0.8330 ha         1 M41       0.130000
     68 H31          5.2200     1.8660    -1.0390 ha         1 M41       0.133000
@<TRIPOS>BOND
     1     1     2 1   
     2     1     3 1   
     3     1    36 1   
     4     1    37 1   
     5     2     9 2   
     6     2    10 2   
     7     2    11 1   
     8     3     4 ar  
     9     3     8 ar  
    10     4     5 ar  
    11     4    38 1   
    12     5     6 ar  
    13     5    39 1   
    14     6     7 ar  
    15     6    40 1   
    16     7     8 ar  
    17     7    41 1   
    18     8    42 1   
    19    11    12 1   
    20    11    43 1   
    21    12    13 1   
    22    12    16 1   
    23    12    44 1   
    24    13    14 1   
    25    13    15 1   
    26    13    45 1   
    27    14    46 1   
    28    14    47 1   
    29    14    48 1   
    30    15    49 1   
    31    15    50 1   
    32    15    51 1   
    33    16    17 2   
    34    16    18 1   
    35    18    19 1   
    36    18    24 1   
    37    19    20 1   
    38    19    22 1   
    39    19    52 1   
    40    20    21 2   
    41    20    25 1   
    42    22    23 1   
    43    22    53 1   
    44    22    54 1   
    45    23    24 1   
    46    23    55 1   
    47    23    56 1   
    48    24    57 1   
    49    24    58 1   
    50    25    26 1   
    51    25    59 1   
    52    26    27 1   
    53    26    60 1   
    54    26    61 1   
    55    27    28 ar  
    56    27    35 ar  
    57    28    29 1   
    58    28    31 ar  
    59    29    30 1   
    60    29    62 1   
    61    29    63 1   
    62    30    64 1   
    63    30    65 1   
    64    31    32 ar  
    65    31    66 1   
    66    32    33 ar  
    67    32    67 1   
    68    33    34 1   
    69    33    35 ar  
    70    35    68 1   
@<TRIPOS>SUBSTRUCTURE
     1 M41         1 TEMP              0 ****  ****    0 ROOT
