@<TRIPOS>MOLECULE
M41
   68    70     1     0     0
SMALL
bcc


@<TRIPOS>ATOM
      1 C7          -5.5290     0.7100     0.3440 c3         1 M41      -0.167300
      2 S8          -3.9990     0.4330    -0.5660 s6         1 M41       1.244900
      3 C4          -6.7050     0.3800    -0.5200 ca         1 M41      -0.078300
      4 C5          -7.2170    -0.9140    -0.5400 ca         1 M41      -0.104000
      5 C6          -8.2970    -1.2290    -1.3510 ca         1 M41      -0.126500
      6 C1          -8.8700    -0.2530    -2.1560 ca         1 M41      -0.118000
      7 C2          -8.3590     1.0380    -2.1450 ca         1 M41      -0.126500
      8 C33         -7.2780     1.3530    -1.3340 ca         1 M41      -0.104000
      9 O12         -3.8810    -0.9980    -0.8040 o          1 M41      -0.596300
     10 O13         -3.9810     1.3570    -1.6890 o          1 M41      -0.596300
     11 N9          -2.7730     0.8760     0.4160 n7         1 M41      -0.865100
     12 C10         -2.2660     0.0530     1.5000 c3         1 M41       0.178500
     13 C14         -2.7430     0.5160     2.8940 c3         1 M41      -0.074700
     14 C15         -2.2210    -0.4130     3.9840 c3         1 M41      -0.089100
     15 C16         -2.4210     1.9690     3.2220 c3         1 M41      -0.089100
     16 C11         -0.7450     0.0610     1.3840 c          1 M41       0.682100
     17 O22         -0.1480     1.1220     1.2490 o          1 M41      -0.602100
     18 N17         -0.0920    -1.1070     1.4640 n          1 M41      -0.460800
     19 C18          1.3550    -1.1090     1.4070 c5         1 M41       0.026700
     20 C23          1.8390    -0.6900     0.0210 c          1 M41       0.659100
     21 O32          1.1860    -0.9080    -0.9860 o          1 M41      -0.582100
     22 C19          1.7130    -2.5730     1.6910 c5         1 M41      -0.082400
     23 C20          0.5350    -3.3440     1.1080 c5         1 M41      -0.094400
     24 C21         -0.6630    -2.4540     1.4230 c5         1 M41       0.106000
     25 N24          3.0640    -0.1420     0.0070 ns         1 M41      -0.572900
     26 C25          3.7500     0.2240    -1.2180 c3         1 M41       0.142300
     27 C26          5.2410     0.2300    -1.0090 ca         1 M41      -0.074300
     28 C27          5.9690    -0.9630    -0.9010 ca         1 M41      -0.066300
     29 C34          5.3130    -2.3120    -1.0510 c3         1 M41       0.193100
     30 N35          4.9430    -2.5500    -2.4390 n8         1 M41      -0.879800
     31 C28          7.3400    -0.8900    -0.6940 ca         1 M41      -0.125000
     32 C29          8.0040     0.3260    -0.5910 ca         1 M41      -0.117000
     33 C30          7.2670     1.4900    -0.6990 ca         1 M41       0.027400
     34 CL3          8.0630     3.0260    -0.5770 cl         1 M41      -0.109400
     35 C31          5.8960     1.4500    -0.9040 ca         1 M41      -0.115000
     36 H7          -5.5200     1.7540     0.6580 h1         1 M41       0.092200
     37 H7A         -5.4860     0.0750     1.2300 h1         1 M41       0.092200
     38 H5          -6.7760    -1.6760     0.0920 ha         1 M41       0.136500
     39 H6          -8.6920    -2.2370    -1.3540 ha         1 M41       0.133500
     40 H1          -9.7150    -0.4960    -2.7860 ha         1 M41       0.131000
     41 H2          -8.8020     1.8020    -2.7710 ha         1 M41       0.133500
     42 H33         -6.8880     2.3630    -1.3240 ha         1 M41       0.136500
     43 HN9         -2.5740     1.8670     0.4400 hn         1 M41       0.460800
     44 H10         -2.6540    -0.9530     1.3460 h1         1 M41       0.079700
     45 H14         -3.8330     0.4150     2.8720 hc         1 M41       0.038700
     46 H15         -1.1350    -0.3590     4.0790 hc         1 M41       0.041033
     47 H15A        -2.6450    -0.1340     4.9490 hc         1 M41       0.041033
     48 H15B        -2.4920    -1.4530     3.7960 hc         1 M41       0.041033
     49 H16         -2.7700     2.6610     2.4540 hc         1 M41       0.041033
     50 H16A        -2.9220     2.2490     4.1490 hc         1 M41       0.041033
     51 H16B        -1.3530     2.1300     3.3630 hc         1 M41       0.041033
     52 H18          1.7730    -0.4460     2.1680 h1         1 M41       0.075700
     53 H19          2.6740    -2.8590     1.2650 hc         1 M41       0.055200
     54 H19A         1.7750    -2.7220     2.7700 hc         1 M41       0.055200
     55 H20          0.6480    -3.4590     0.0300 hc         1 M41       0.065200
     56 H20A         0.4230    -4.3380     1.5380 hc         1 M41       0.065200
     57 H21         -1.0990    -2.7190     2.3890 h1         1 M41       0.055200
     58 H21A        -1.4390    -2.5360     0.6620 h1         1 M41       0.055200
     59 HN24         3.4960     0.1080     0.8820 hn         1 M41       0.312500
     60 H25          3.4900    -0.4980    -1.9910 h1         1 M41       0.075200
     61 H25A         3.4230     1.2090    -1.5620 h1         1 M41       0.075200
     62 H34          5.9860    -3.0740    -0.6370 h1         1 M41       0.035700
     63 H34A         4.4060    -2.3480    -0.4450 h1         1 M41       0.035700
     64 HN35         5.7820    -2.6950    -2.9870 hn         1 M41       0.342800
     65 HN3A         4.4180    -3.4130    -2.5000 hn         1 M41       0.342800
     66 H28          7.9150    -1.8050    -0.6120 ha         1 M41       0.132000
     67 H29          9.0730     0.3570    -0.4340 ha         1 M41       0.148000
     68 H31          5.3320     2.3710    -0.9870 ha         1 M41       0.151000
@<TRIPOS>BOND
     1     1     2 1   
     2     1     3 1   
     3     1    36 1   
     4     1    37 1   
     5     2     9 2   
     6     2    10 2   
     7     2    11 1   
     8     3     4 ar  
     9     3     8 ar  
    10     4     5 ar  
    11     4    38 1   
    12     5     6 ar  
    13     5    39 1   
    14     6     7 ar  
    15     6    40 1   
    16     7     8 ar  
    17     7    41 1   
    18     8    42 1   
    19    11    12 1   
    20    11    43 1   
    21    12    13 1   
    22    12    16 1   
    23    12    44 1   
    24    13    14 1   
    25    13    15 1   
    26    13    45 1   
    27    14    46 1   
    28    14    47 1   
    29    14    48 1   
    30    15    49 1   
    31    15    50 1   
    32    15    51 1   
    33    16    17 2   
    34    16    18 1   
    35    18    19 1   
    36    18    24 1   
    37    19    20 1   
    38    19    22 1   
    39    19    52 1   
    40    20    21 2   
    41    20    25 1   
    42    22    23 1   
    43    22    53 1   
    44    22    54 1   
    45    23    24 1   
    46    23    55 1   
    47    23    56 1   
    48    24    57 1   
    49    24    58 1   
    50    25    26 1   
    51    25    59 1   
    52    26    27 1   
    53    26    60 1   
    54    26    61 1   
    55    27    28 ar  
    56    27    35 ar  
    57    28    29 1   
    58    28    31 ar  
    59    29    30 1   
    60    29    62 1   
    61    29    63 1   
    62    30    64 1   
    63    30    65 1   
    64    31    32 ar  
    65    31    66 1   
    66    32    33 ar  
    67    32    67 1   
    68    33    34 1   
    69    33    35 ar  
    70    35    68 1   
@<TRIPOS>SUBSTRUCTURE
     1 M41         1 TEMP              0 ****  ****    0 ROOT
