@<TRIPOS>MOLECULE
M42
   24    26     1     0     0
SMALL
abcg2


@<TRIPOS>ATOM
      1 C1           0.1590     2.1080    -0.0580 ca         1 M42      -0.051000
      2 C2          -0.6640     0.9740    -0.0320 ca         1 M42      -0.132800
      3 C3          -0.0830    -0.3140    -0.0120 ca         1 M42       0.128600
      4 C4           1.2960    -0.3840    -0.0180 ca         1 M42      -0.026900
      5 C5           2.0790     0.7450    -0.0480 ca         1 M42       0.106100
      6 C6           1.5430     2.0200    -0.0680 ca         1 M42      -0.132000
      7 C7          -2.1070     1.0490    -0.0260 cc         1 M42       0.026600
      8 C8          -2.8360    -0.0900     0.0030 cd         1 M42      -0.300200
      9 C9          -2.2440    -1.4140     0.0300 c          1 M42       0.565200
     10 N10         -0.8730    -1.4330     0.0180 ns         1 M42      -0.369100
     11 O11          3.3810     0.3810    -0.0290 os         1 M42      -0.340100
     12 C12          3.3980    -1.0290    -0.2250 c5         1 M42       0.375600
     13 O13          2.0780    -1.4930     0.0330 os         1 M42      -0.346100
     14 C14         -2.7780     2.3850    -0.0510 c3         1 M42      -0.063900
     15 O15         -2.8870    -2.4560     0.0600 o          1 M42      -0.547000
     16 H1          -0.2940     3.0900    -0.0760 ha         1 M42       0.124000
     17 H6           2.1680     2.9010    -0.0890 ha         1 M42       0.140000
     18 H8          -3.9170    -0.0480     0.0070 ha         1 M42       0.208000
     19 HN10        -0.4320    -2.3420     0.0320 hn         1 M42       0.341500
     20 H12          3.6780    -1.2540    -1.2590 h2         1 M42       0.068200
     21 H12A         4.0940    -1.4910     0.4740 h2         1 M42       0.068200
     22 H14         -2.4940     2.9520    -0.9390 hc         1 M42       0.052033
     23 H14A        -3.8610     2.2790    -0.0470 hc         1 M42       0.052033
     24 H14B        -2.4930     2.9820     0.8160 hc         1 M42       0.052033
@<TRIPOS>BOND
     1     1     2 ar  
     2     1     6 ar  
     3     1    16 1   
     4     2     3 ar  
     5     2     7 1   
     6     3     4 ar  
     7     3    10 1   
     8     4     5 ar  
     9     4    13 1   
    10     5     6 ar  
    11     5    11 1   
    12     6    17 1   
    13     7     8 2   
    14     7    14 1   
    15     8     9 1   
    16     8    18 1   
    17     9    10 1   
    18     9    15 2   
    19    10    19 1   
    20    11    12 1   
    21    12    13 1   
    22    12    20 1   
    23    12    21 1   
    24    14    22 1   
    25    14    23 1   
    26    14    24 1   
@<TRIPOS>SUBSTRUCTURE
     1 M42         1 TEMP              0 ****  ****    0 ROOT
