@<TRIPOS>MOLECULE
M42
   24    26     1     0     0
SMALL
No Charge or Current Charge


@<TRIPOS>ATOM
      1 C1           0.1630     2.1320    -0.0780 ca         1 M42      -0.051000
      2 C2          -0.6740     0.9820    -0.0480 ca         1 M42      -0.132800
      3 C3          -0.0690    -0.2950    -0.0560 ca         1 M42       0.128600
      4 C4           1.3280    -0.3960    -0.0930 ca         1 M42      -0.026900
      5 C5           2.1170     0.7160    -0.1220 ca         1 M42       0.106100
      6 C6           1.5690     2.0020    -0.1150 ca         1 M42      -0.132000
      7 C7          -2.1450     1.1030    -0.0090 cc         1 M42       0.026600
      8 C8          -2.8450    -0.0960     0.0190 cd         1 M42      -0.300200
      9 C9          -2.2410    -1.4430     0.0130 c          1 M42       0.565200
     10 N10         -0.8800    -1.4300    -0.0250 ns         1 M42      -0.369100
     11 O11          3.4390     0.4150    -0.1510 os         1 M42      -0.340100
     12 C12          3.4400    -1.0570    -0.1720 c5         1 M42       0.375600
     13 O13          2.0530    -1.5480    -0.1010 os         1 M42      -0.346100
     14 C14         -2.8530     2.4340    -0.0000 c3         1 M42      -0.063900
     15 O15         -2.8850    -2.4790     0.0390 o          1 M42      -0.547000
     16 H1          -0.2660     3.1310    -0.0730 ha         1 M42       0.124000
     17 H6           2.2120     2.8780    -0.1360 ha         1 M42       0.140000
     18 H8          -3.9270    -0.1120     0.0490 ha         1 M42       0.208000
     19 HN10        -0.4150    -2.3280    -0.0300 hn         1 M42       0.341500
     20 H12          3.8980    -1.4040    -1.1060 h2         1 M42       0.068200
     21 H12A         4.0060    -1.4360     0.6870 h2         1 M42       0.068200
     22 H14         -2.6090     3.0120    -0.9000 hc         1 M42       0.052033
     23 H14A        -3.9420     2.3110     0.0290 hc         1 M42       0.052033
     24 H14B        -2.5630     3.0250     0.8770 hc         1 M42       0.052033
@<TRIPOS>BOND
     1     1     2 ar  
     2     1     6 ar  
     3     1    16 1   
     4     2     3 ar  
     5     2     7 1   
     6     3     4 ar  
     7     3    10 1   
     8     4     5 ar  
     9     4    13 1   
    10     5     6 ar  
    11     5    11 1   
    12     6    17 1   
    13     7     8 2   
    14     7    14 1   
    15     8     9 1   
    16     8    18 1   
    17     9    10 1   
    18     9    15 2   
    19    10    19 1   
    20    11    12 1   
    21    12    13 1   
    22    12    20 1   
    23    12    21 1   
    24    14    22 1   
    25    14    23 1   
    26    14    24 1   
@<TRIPOS>SUBSTRUCTURE
     1 M42         1 TEMP              0 ****  ****    0 ROOT
