@<TRIPOS>MOLECULE
M44
   27    26     1     0     0
SMALL
No Charge or Current Charge


@<TRIPOS>ATOM
      1 P            0.0110    -0.4570    -0.7120 p5         1 M44       1.295600
      2 C1          -2.5460     0.2210    -0.1000 c3         1 M44       0.233500
      3 N1          -1.1100     0.2610     0.1930 n7         1 M44      -0.946000
      4 O1           0.0540     0.1480    -2.0610 o          1 M44      -0.839500
      5 C2          -3.1240    -1.2030     0.0670 c3         1 M44      -0.099600
      6 N2           1.1210     0.1740     0.2650 n7         1 M44      -0.946000
      7 O2          -0.0160    -1.9340    -0.6330 o          1 M44      -0.839500
      8 C3          -3.2590     1.2250     0.8290 c3         1 M44      -0.099600
      9 C4           2.5580     0.0610    -0.0000 c3         1 M44       0.233500
     10 C5           3.2830     1.1930     0.7560 c3         1 M44      -0.099600
     11 C6           3.0970    -1.3290     0.4100 c3         1 M44      -0.099600
     12 H1          -2.7260     0.5470    -1.1350 h1         1 M44       0.052700
     13 HN1         -0.9460    -0.2780     1.0350 hn         1 M44       0.415000
     14 H2          -4.2140    -1.1880    -0.0550 hc         1 M44       0.022617
     15 H2A         -2.7220    -1.8870    -0.6890 hc         1 M44       0.022617
     16 H2B         -2.8990    -1.6070     1.0620 hc         1 M44       0.022617
     17 HN2          0.8370     1.1260     0.0610 hn         1 M44       0.415000
     18 H3          -2.8610     2.2370     0.6860 hc         1 M44       0.022617
     19 H3A         -4.3330     1.2530     0.6120 hc         1 M44       0.022617
     20 H3B         -3.1290     0.9490     1.8830 hc         1 M44       0.022617
     21 H4           2.7570     0.2050    -1.0730 h1         1 M44       0.052700
     22 H5           3.1360     1.1010     1.8400 hc         1 M44       0.022617
     23 H5A          4.3600     1.1610     0.5530 hc         1 M44       0.022617
     24 H5B          2.9100     2.1740     0.4390 hc         1 M44       0.022617
     25 H6           2.6590    -2.1230    -0.2050 hc         1 M44       0.022617
     26 H6A          4.1850    -1.3710     0.2740 hc         1 M44       0.022617
     27 H6B          2.8780    -1.5420     1.4630 hc         1 M44       0.022617
@<TRIPOS>BOND
     1     1     3 1   
     2     1     4 1   
     3     1     6 1   
     4     1     7 1   
     5     2     3 1   
     6     2     5 1   
     7     2     8 1   
     8     2    12 1   
     9     3    13 1   
    10     5    14 1   
    11     5    15 1   
    12     5    16 1   
    13     6     9 1   
    14     6    17 1   
    15     8    18 1   
    16     8    19 1   
    17     8    20 1   
    18     9    10 1   
    19     9    11 1   
    20     9    21 1   
    21    10    22 1   
    22    10    23 1   
    23    10    24 1   
    24    11    25 1   
    25    11    26 1   
    26    11    27 1   
@<TRIPOS>SUBSTRUCTURE
     1 M44         1 TEMP              0 ****  ****    0 ROOT
