@<TRIPOS>MOLECULE
M44
   27    26     1     0     0
SMALL
abcg2


@<TRIPOS>ATOM
      1 P           -0.0130    -0.1740    -0.6190 p5         1 M44       1.295600
      2 C1          -2.6410     0.2400     0.0390 c3         1 M44       0.233500
      3 N1          -1.2580     0.1960     0.4960 n7         1 M44      -0.946000
      4 O1          -0.2940     0.6490    -1.8570 o          1 M44      -0.839500
      5 C2          -3.1850    -1.1220    -0.3950 c3         1 M44      -0.099600
      6 N2           1.3020     0.4250     0.2900 n7         1 M44      -0.946000
      7 O2           0.2230    -1.6570    -0.7950 o          1 M44      -0.839500
      8 C3          -3.5170     0.8510     1.1250 c3         1 M44      -0.099600
      9 C4           2.6530    -0.0490    -0.0120 c3         1 M44       0.233500
     10 C5           3.6450     1.0980     0.1190 c3         1 M44      -0.099600
     11 C6           3.0290    -1.2040     0.9080 c3         1 M44      -0.099600
     12 H1          -2.6620     0.9050    -0.8280 h1         1 M44       0.052700
     13 HN1         -1.1760    -0.3460     1.3490 hn         1 M44       0.415000
     14 H2          -4.2230    -1.0500    -0.7250 hc         1 M44       0.022617
     15 H2A         -2.5980    -1.5340    -1.2150 hc         1 M44       0.022617
     16 H2B         -3.1460    -1.8330     0.4330 hc         1 M44       0.022617
     17 HN2          1.2670     1.4310     0.3910 hn         1 M44       0.415000
     18 H3          -3.1440     1.8310     1.4260 hc         1 M44       0.022617
     19 H3A         -4.5450     0.9700     0.7780 hc         1 M44       0.022617
     20 H3B         -3.5440     0.2130     2.0130 hc         1 M44       0.022617
     21 H4           2.7160    -0.4140    -1.0460 h1         1 M44       0.052700
     22 H5           3.6280     1.5170     1.1290 hc         1 M44       0.022617
     23 H5A          4.6620     0.7590    -0.0830 hc         1 M44       0.022617
     24 H5B          3.4160     1.9020    -0.5830 hc         1 M44       0.022617
     25 H6           2.2990    -2.0070     0.8220 hc         1 M44       0.022617
     26 H6A          4.0120    -1.6080     0.6570 hc         1 M44       0.022617
     27 H6B          3.0550    -0.8720     1.9490 hc         1 M44       0.022617
@<TRIPOS>BOND
     1     1     3 1   
     2     1     4 1   
     3     1     6 1   
     4     1     7 1   
     5     2     3 1   
     6     2     5 1   
     7     2     8 1   
     8     2    12 1   
     9     3    13 1   
    10     5    14 1   
    11     5    15 1   
    12     5    16 1   
    13     6     9 1   
    14     6    17 1   
    15     8    18 1   
    16     8    19 1   
    17     8    20 1   
    18     9    10 1   
    19     9    11 1   
    20     9    21 1   
    21    10    22 1   
    22    10    23 1   
    23    10    24 1   
    24    11    25 1   
    25    11    26 1   
    26    11    27 1   
@<TRIPOS>SUBSTRUCTURE
     1 M44         1 TEMP              0 ****  ****    0 ROOT
