@<TRIPOS>MOLECULE
M45
   22    23     1     0     0
SMALL
No Charge or Current Charge


@<TRIPOS>ATOM
      1 C10          3.3420     0.4400     0.0360 cc         1 M45       0.547900
      2 C01         -3.2320     0.3630     0.6940 c5         1 M45      -0.082400
      3 C02         -3.3660    -0.6770    -0.4630 c5         1 M45       0.158800
      4 C04         -1.1230    -0.4160    -0.1240 c5         1 M45       0.438700
      5 C05         -1.7340     0.7880     0.6290 c5         1 M45      -0.080400
      6 C07          1.3100     0.1050    -0.1910 cd         1 M45       0.672400
      7 N03         -2.0710    -0.6200    -1.1770 n7         1 M45      -0.896400
      8 N06          0.0800     0.0720    -0.7150 nu         1 M45      -0.892100
      9 N08          1.6990    -0.3420     1.0450 na         1 M45      -0.248700
     10 N09          3.0510    -0.1230     1.2030 nd         1 M45      -0.546800
     11 N11          2.3110     0.6000    -0.8490 nc         1 M45      -0.758000
     12 H1           4.3360     0.7710    -0.2460 h5         1 M45       0.059100
     13 H3          -3.4850    -0.0930     1.6580 hc         1 M45       0.055200
     14 H4          -3.5280    -1.6830    -0.0500 h1         1 M45       0.040200
     15 H5          -4.2070    -0.4520    -1.1340 h1         1 M45       0.040200
     16 H6          -0.9900    -1.3010     0.5150 h2         1 M45       0.029700
     17 H7          -1.6250     1.7280     0.0740 hc         1 M45       0.058700
     18 H8          -1.2920     0.9340     1.6210 hc         1 M45       0.058700
     19 H9          -1.8750    -1.5150    -1.6370 hn         1 M45       0.421000
     20 H11          0.0400     0.4630    -1.6460 hn         1 M45       0.501000
     21 H12          1.1060    -0.7690     1.7460 hn         1 M45       0.370000
     22 H2          -3.9010     1.2200     0.5550 hc         1 M45       0.055200
@<TRIPOS>BOND
     1     1    10 2   
     2     1    11 1   
     3     1    12 1   
     4     2     3 1   
     5     2     5 1   
     6     2    13 1   
     7     2    22 1   
     8     3     7 1   
     9     3    14 1   
    10     3    15 1   
    11     4     5 1   
    12     4     7 1   
    13     4     8 1   
    14     4    16 1   
    15     5    17 1   
    16     5    18 1   
    17     6     8 1   
    18     6     9 1   
    19     6    11 2   
    20     7    19 1   
    21     8    20 1   
    22     9    10 1   
    23     9    21 1   
@<TRIPOS>SUBSTRUCTURE
     1 M45         1 TEMP              0 ****  ****    0 ROOT
