@<TRIPOS>MOLECULE
M45
   22    23     1     0     0
SMALL
bcc


@<TRIPOS>ATOM
      1 C10          3.3290    -0.0220    -0.4990 cc         1 M45       0.547900
      2 C01         -3.4840     0.3680     0.1280 c5         1 M45      -0.082400
      3 C02         -2.9630    -0.9760    -0.3740 c5         1 M45       0.158800
      4 C04         -1.0720     0.1100     0.4190 c5         1 M45       0.438700
      5 C05         -2.2650     0.9980     0.8190 c5         1 M45      -0.080400
      6 C07          1.3190     0.3370    -0.0500 cd         1 M45       0.672400
      7 N03         -1.5780    -0.6750    -0.6940 n7         1 M45      -0.841200
      8 N06          0.0900     0.8970     0.0860 nu         1 M45      -0.836900
      9 N08          1.7080    -0.8210     0.5060 na         1 M45      -0.198400
     10 N09          3.0090    -1.0600     0.2230 nd         1 M45      -0.546800
     11 N11          2.3350     0.8710    -0.7040 nc         1 M45      -0.758000
     12 H1           4.3230     0.1050    -0.9020 h5         1 M45       0.059100
     13 H3          -4.3360     0.2540     0.7960 hc         1 M45       0.055200
     14 H4          -3.0670    -1.7390     0.4110 h1         1 M45       0.040200
     15 H5          -3.4980    -1.3380    -1.2540 h1         1 M45       0.040200
     16 H6          -0.8030    -0.5180     1.2790 h2         1 M45       0.029700
     17 H7          -2.1070     2.0270     0.4940 hc         1 M45       0.058700
     18 H8          -2.3690     1.0200     1.9030 hc         1 M45       0.058700
     19 H9          -1.0340    -1.5160    -0.8450 hn         1 M45       0.365800
     20 H11         -0.0750     1.6480    -0.5690 hn         1 M45       0.445800
     21 H12          1.1900    -1.4600     1.0870 hn         1 M45       0.319700
     22 H2          -3.8070     0.9820    -0.7140 hc         1 M45       0.055200
@<TRIPOS>BOND
     1     1    10 2   
     2     1    11 1   
     3     1    12 1   
     4     2     3 1   
     5     2     5 1   
     6     2    13 1   
     7     2    22 1   
     8     3     7 1   
     9     3    14 1   
    10     3    15 1   
    11     4     5 1   
    12     4     7 1   
    13     4     8 1   
    14     4    16 1   
    15     5    17 1   
    16     5    18 1   
    17     6     8 1   
    18     6     9 1   
    19     6    11 2   
    20     7    19 1   
    21     8    20 1   
    22     9    10 1   
    23     9    21 1   
@<TRIPOS>SUBSTRUCTURE
     1 M45         1 TEMP              0 ****  ****    0 ROOT
