@<TRIPOS>MOLECULE
M46
   46    48     1     0     0
SMALL
abcg2


@<TRIPOS>ATOM
      1 F23         -8.3960    -1.3870    -0.3990 f          1 M46      -0.182000
      2 C23         -7.6240    -0.3030    -0.2080 ca         1 M46       0.171000
      3 C22         -6.3690    -0.4750     0.3420 ca         1 M46      -0.152000
      4 C24         -8.1160     0.9370    -0.5670 ca         1 M46      -0.153000
      5 C25         -7.3040     2.0420    -0.3540 ca         1 M46      -0.083000
      6 C26         -6.0380     1.8960     0.1970 ca         1 M46      -0.124000
      7 C21         -5.5560     0.6380     0.5500 ca         1 M46      -0.049300
      8 C16         -4.1700     0.4680     1.1040 c3         1 M46      -0.034100
      9 C15         -3.1720     0.0360     0.0300 c3         1 M46      -0.077400
     10 C14         -1.7580    -0.0890     0.5760 c3         1 M46       0.161800
     11 N13         -0.8300    -0.4830    -0.4650 n7         1 M46      -0.865400
     12 C12          0.5450    -0.5480    -0.0140 c3         1 M46       0.161800
     13 C11          1.4840    -0.8670    -1.1770 c3         1 M46      -0.036100
     14 C08          2.9180    -0.9040    -0.7310 ca         1 M46      -0.059300
     15 C07          3.4680    -2.0990    -0.2180 ca         1 M46      -0.126000
     16 C06          4.7620    -2.1350     0.2340 ca         1 M46      -0.073000
     17 C09          3.6950     0.2300    -0.7720 ca         1 M46      -0.100000
     18 C10          5.0300     0.2260    -0.3140 ca         1 M46       0.326000
     19 N01          5.7450     1.3750    -0.3770 nb         1 M46      -0.758000
     20 C05          5.5660    -0.9800     0.1950 ca         1 M46      -0.130000
     21 C04          6.9100    -0.9490     0.6450 ca         1 M46      -0.029000
     22 C03          7.6220     0.2040     0.5750 ca         1 M46      -0.210000
     23 C02          6.9870     1.3720     0.0460 ca         1 M46       0.613900
     24 N02          7.7070     2.5190    -0.0620 nv         1 M46      -1.064900
     25 H22         -6.0270    -1.4680     0.6090 ha         1 M46       0.129000
     26 H24         -9.1040     1.0380    -0.9960 ha         1 M46       0.131000
     27 H25         -7.6660     3.0260    -0.6200 ha         1 M46       0.117000
     28 H26         -5.4190     2.7700     0.3570 ha         1 M46       0.117000
     29 H161        -3.8390     1.4100     1.5490 hc         1 M46       0.048700
     30 H162        -4.1810    -0.2720     1.9100 hc         1 M46       0.048700
     31 H151        -3.4890    -0.9230    -0.3930 hc         1 M46       0.051200
     32 H152        -3.1760     0.7580    -0.7910 hc         1 M46       0.051200
     33 H141        -1.4370     0.8820     0.9670 h1         1 M46       0.028200
     34 H142        -1.7560    -0.7800     1.4350 h1         1 M46       0.028200
     35 H13         -1.1020    -1.3950    -0.8160 hn         1 M46       0.405000
     36 H121         0.8170     0.4280     0.4000 h1         1 M46       0.033200
     37 H122         0.7020    -1.2800     0.7940 h1         1 M46       0.033200
     38 H111         1.2060    -1.8320    -1.6110 hc         1 M46       0.055700
     39 H112         1.3480    -0.1140    -1.9550 hc         1 M46       0.055700
     40 H07          2.8590    -2.9940    -0.1890 ha         1 M46       0.112000
     41 H09          3.2920     1.1570    -1.1630 ha         1 M46       0.130000
     42 H06          5.1810    -3.0560     0.6220 ha         1 M46       0.111000
     43 H04          7.3610    -1.8500     1.0440 ha         1 M46       0.116000
     44 H03          8.6500     0.2520     0.9120 ha         1 M46       0.120000
     45 H021         7.1920     3.3700    -0.2180 hn         1 M46       0.476000
     46 H022         8.5360     2.6200     0.4970 hn         1 M46       0.476000
@<TRIPOS>BOND
     1     1     2 1   
     2     2     3 ar  
     3     2     4 ar  
     4     3     7 ar  
     5     3    25 1   
     6     4     5 ar  
     7     4    26 1   
     8     5     6 ar  
     9     5    27 1   
    10     6     7 ar  
    11     6    28 1   
    12     7     8 1   
    13     8     9 1   
    14     8    29 1   
    15     8    30 1   
    16     9    10 1   
    17     9    31 1   
    18     9    32 1   
    19    10    11 1   
    20    10    33 1   
    21    10    34 1   
    22    11    12 1   
    23    11    35 1   
    24    12    13 1   
    25    12    36 1   
    26    12    37 1   
    27    13    14 1   
    28    13    38 1   
    29    13    39 1   
    30    14    15 ar  
    31    14    17 ar  
    32    15    16 ar  
    33    15    40 1   
    34    16    20 ar  
    35    16    42 1   
    36    17    18 ar  
    37    17    41 1   
    38    18    19 ar  
    39    18    20 ar  
    40    19    23 ar  
    41    20    21 ar  
    42    21    22 ar  
    43    21    43 1   
    44    22    23 ar  
    45    22    44 1   
    46    23    24 1   
    47    24    45 1   
    48    24    46 1   
@<TRIPOS>SUBSTRUCTURE
     1 M46         1 TEMP              0 ****  ****    0 ROOT
