@<TRIPOS>MOLECULE
M46
   46    48     1     0     0
SMALL
No Charge or Current Charge


@<TRIPOS>ATOM
      1 F23         -8.5530    -1.5550    -0.2060 f          1 M46      -0.182000
      2 C23         -7.7730    -0.4540    -0.1310 ca         1 M46       0.171000
      3 C22         -6.4910    -0.5450     0.4350 ca         1 M46      -0.152000
      4 C24         -8.2490     0.7720    -0.6200 ca         1 M46      -0.153000
      5 C25         -7.4370     1.9160    -0.5430 ca         1 M46      -0.083000
      6 C26         -6.1520     1.8280     0.0230 ca         1 M46      -0.124000
      7 C21         -5.6730     0.5980     0.5170 ca         1 M46      -0.049300
      8 C16         -4.2800     0.5040     1.1250 c3         1 M46      -0.034100
      9 C15         -3.2090     0.1510     0.0710 c3         1 M46      -0.077400
     10 C14         -1.7910     0.0510     0.6670 c3         1 M46       0.161800
     11 N13         -0.8170    -0.2800    -0.3880 n7         1 M46      -0.865400
     12 C12          0.5840    -0.3870     0.0650 c3         1 M46       0.161800
     13 C11          1.5160    -0.7060    -1.1210 c3         1 M46      -0.036100
     14 C08          2.9720    -0.8150    -0.6880 ca         1 M46      -0.059300
     15 C07          3.4940    -2.0490    -0.2590 ca         1 M46      -0.126000
     16 C06          4.8340    -2.1490     0.1450 ca         1 M46      -0.073000
     17 C09          3.8060     0.3200    -0.7050 ca         1 M46      -0.100000
     18 C10          5.1530     0.2440    -0.3050 ca         1 M46       0.326000
     19 N01          5.9270     1.3560    -0.3340 nb         1 M46      -0.758000
     20 C05          5.6620    -1.0120     0.1230 ca         1 M46      -0.130000
     21 C04          7.0060    -1.1090     0.5290 ca         1 M46      -0.029000
     22 C03          7.7890     0.0530     0.4900 ca         1 M46      -0.210000
     23 C02          7.1900     1.2350     0.0490 ca         1 M46       0.613900
     24 N02          7.8250     2.4060    -0.0240 nv         1 M46      -1.064900
     25 H22         -6.1370    -1.5030     0.8070 ha         1 M46       0.129000
     26 H24         -9.2430     0.8330    -1.0570 ha         1 M46       0.131000
     27 H25         -7.8000     2.8690    -0.9220 ha         1 M46       0.117000
     28 H26         -5.5280     2.7170     0.0770 ha         1 M46       0.117000
     29 H161        -4.0140     1.4540     1.6050 hc         1 M46       0.048700
     30 H162        -4.2670    -0.2540     1.9190 hc         1 M46       0.048700
     31 H151        -3.4730    -0.8020    -0.4020 hc         1 M46       0.051200
     32 H152        -3.2160     0.9150    -0.7160 hc         1 M46       0.051200
     33 H141        -1.5310     1.0090     1.1370 h1         1 M46       0.028200
     34 H142        -1.7830    -0.7210     1.4490 h1         1 M46       0.028200
     35 H13         -1.0880    -1.1810    -0.8010 hn         1 M46       0.405000
     36 H121         0.9080     0.5570     0.5260 h1         1 M46       0.033200
     37 H122         0.6830    -1.1790     0.8200 h1         1 M46       0.033200
     38 H111         1.1930    -1.6430    -1.5920 hc         1 M46       0.055700
     39 H112         1.4070     0.0750    -1.8830 hc         1 M46       0.055700
     40 H07          2.8590    -2.9330    -0.2380 ha         1 M46       0.112000
     41 H09          3.4080     1.2760    -1.0310 ha         1 M46       0.130000
     42 H06          5.2260    -3.1090     0.4740 ha         1 M46       0.111000
     43 H04          7.4300    -2.0540     0.8630 ha         1 M46       0.116000
     44 H03          8.8310     0.0350     0.7910 ha         1 M46       0.120000
     45 H021         7.2130     3.2060    -0.1250 hn         1 M46       0.476000
     46 H022         8.6420     2.5330     0.5630 hn         1 M46       0.476000
@<TRIPOS>BOND
     1     1     2 1   
     2     2     3 ar  
     3     2     4 ar  
     4     3     7 ar  
     5     3    25 1   
     6     4     5 ar  
     7     4    26 1   
     8     5     6 ar  
     9     5    27 1   
    10     6     7 ar  
    11     6    28 1   
    12     7     8 1   
    13     8     9 1   
    14     8    29 1   
    15     8    30 1   
    16     9    10 1   
    17     9    31 1   
    18     9    32 1   
    19    10    11 1   
    20    10    33 1   
    21    10    34 1   
    22    11    12 1   
    23    11    35 1   
    24    12    13 1   
    25    12    36 1   
    26    12    37 1   
    27    13    14 1   
    28    13    38 1   
    29    13    39 1   
    30    14    15 ar  
    31    14    17 ar  
    32    15    16 ar  
    33    15    40 1   
    34    16    20 ar  
    35    16    42 1   
    36    17    18 ar  
    37    17    41 1   
    38    18    19 ar  
    39    18    20 ar  
    40    19    23 ar  
    41    20    21 ar  
    42    21    22 ar  
    43    21    43 1   
    44    22    23 ar  
    45    22    44 1   
    46    23    24 1   
    47    24    45 1   
    48    24    46 1   
@<TRIPOS>SUBSTRUCTURE
     1 M46         1 TEMP              0 ****  ****    0 ROOT
