@<TRIPOS>MOLECULE
M48
   43    45     1     0     0
SMALL
No Charge or Current Charge


@<TRIPOS>ATOM
      1 F23          7.1470    -2.6020    -0.0330 f          1 M48      -0.181000
      2 C25          6.8720     0.7920     1.3130 ca         1 M48      -0.084000
      3 C24          7.3510    -0.5100     1.0890 ca         1 M48      -0.153000
      4 C23          6.6880    -1.3500     0.1810 ca         1 M48       0.171000
      5 C22          5.5500    -0.8980    -0.5050 ca         1 M48      -0.149000
      6 C26          5.7320     1.2470     0.6270 ca         1 M48      -0.126000
      7 C21          5.0650     0.4070    -0.2870 ca         1 M48      -0.051300
      8 C15          3.8270     0.9010    -1.0240 c3         1 M48      -0.038100
      9 C14          2.5340     0.6180    -0.2330 c3         1 M48       0.160800
     10 N13          1.3540     1.1020    -0.9770 n7         1 M48      -0.863400
     11 C12          0.0560     0.8540    -0.3180 c3         1 M48       0.158800
     12 C11         -1.1030     1.3710    -1.1930 c3         1 M48      -0.035100
     13 C08         -2.4600     1.1240    -0.5450 ca         1 M48      -0.060300
     14 C07         -3.0140     2.0790     0.3260 ca         1 M48      -0.127000
     15 C06         -4.2610     1.8500     0.9270 ca         1 M48      -0.072000
     16 C09         -3.1660    -0.0660    -0.8060 ca         1 M48      -0.100000
     17 C10         -4.4180    -0.3180    -0.2140 ca         1 M48       0.328000
     18 N01         -5.0710    -1.4740    -0.4890 nb         1 M48      -0.761000
     19 C05         -4.9630     0.6590     0.6610 ca         1 M48      -0.130000
     20 C04         -6.2130     0.4270     1.2620 ca         1 M48      -0.029000
     21 C03         -6.8710    -0.7740     0.9650 ca         1 M48      -0.210000
     22 C02         -6.2450    -1.6680     0.0940 ca         1 M48       0.616900
     23 N02         -6.7710    -2.8370    -0.2740 nv         1 M48      -1.068900
     24 H22          5.0460    -1.5620    -1.2030 ha         1 M48       0.133000
     25 H25          7.3820     1.4470     2.0160 ha         1 M48       0.116000
     26 H26          5.3660     2.2560     0.8070 ha         1 M48       0.115000
     27 H151         3.9070     1.9780    -1.2120 hc         1 M48       0.056200
     28 H152         3.7580     0.4210    -2.0080 hc         1 M48       0.056200
     29 H141         2.4570    -0.4640    -0.0570 h1         1 M48       0.035200
     30 H142         2.6000     1.1120     0.7460 h1         1 M48       0.035200
     31 H13          1.4560     2.1150    -1.1130 hn         1 M48       0.402000
     32 H121        -0.0840    -0.2220    -0.1440 h1         1 M48       0.035700
     33 H122         0.0190     1.3580     0.6580 h1         1 M48       0.035700
     34 H111        -0.9660     2.4440    -1.3780 hc         1 M48       0.054700
     35 H112        -1.0590     0.8810    -2.1730 hc         1 M48       0.054700
     36 H07         -2.4770     3.0010     0.5390 ha         1 M48       0.111000
     37 H09         -2.7420    -0.8090    -1.4750 ha         1 M48       0.129000
     38 H06         -4.6790     2.5960     1.5990 ha         1 M48       0.111000
     39 H04         -6.6610     1.1540     1.9370 ha         1 M48       0.116000
     40 H03         -7.8370    -1.0050     1.4000 ha         1 M48       0.120000
     41 H021        -6.3270    -3.2560    -1.0820 hn         1 M48       0.478000
     42 H022        -7.7780    -2.9380    -0.2110 hn         1 M48       0.478000
     43 H24          8.2320    -0.8690     1.6160 ha         1 M48       0.132000
@<TRIPOS>BOND
     1     1     4 1   
     2     2     3 ar  
     3     2     6 ar  
     4     2    25 1   
     5     3     4 ar  
     6     3    43 1   
     7     4     5 ar  
     8     5     7 ar  
     9     5    24 1   
    10     6     7 ar  
    11     6    26 1   
    12     7     8 1   
    13     8     9 1   
    14     8    27 1   
    15     8    28 1   
    16     9    10 1   
    17     9    29 1   
    18     9    30 1   
    19    10    11 1   
    20    10    31 1   
    21    11    12 1   
    22    11    32 1   
    23    11    33 1   
    24    12    13 1   
    25    12    34 1   
    26    12    35 1   
    27    13    14 ar  
    28    13    16 ar  
    29    14    15 ar  
    30    14    36 1   
    31    15    19 ar  
    32    15    38 1   
    33    16    17 ar  
    34    16    37 1   
    35    17    18 ar  
    36    17    19 ar  
    37    18    22 ar  
    38    19    20 ar  
    39    20    21 ar  
    40    20    39 1   
    41    21    22 ar  
    42    21    40 1   
    43    22    23 1   
    44    23    41 1   
    45    23    42 1   
@<TRIPOS>SUBSTRUCTURE
     1 M48         1 TEMP              0 ****  ****    0 ROOT
