@<TRIPOS>MOLECULE
M48
   43    45     1     0     0
SMALL
abcg2


@<TRIPOS>ATOM
      1 F23          6.8260    -2.6170    -0.1860 f          1 M48      -0.181000
      2 C25          6.6250     0.5520     1.5100 ca         1 M48      -0.084000
      3 C24          7.0590    -0.7260     1.1840 ca         1 M48      -0.153000
      4 C23          6.4200    -1.3790     0.1490 ca         1 M48       0.171000
      5 C22          5.3800    -0.8120    -0.5600 ca         1 M48      -0.149000
      6 C26          5.5820     1.1460     0.8120 ca         1 M48      -0.126000
      7 C21          4.9490     0.4720    -0.2300 ca         1 M48      -0.051300
      8 C15          3.7910     1.0890    -0.9600 c3         1 M48      -0.038100
      9 C14          2.4560     0.6500    -0.3630 c3         1 M48       0.160800
     10 N13          1.3480     1.2460    -1.0810 n7         1 M48      -0.863400
     11 C12          0.0600     0.8900    -0.5200 c3         1 M48       0.158800
     12 C11         -1.0810     1.4850    -1.3430 c3         1 M48      -0.035100
     13 C08         -2.4110     1.2180    -0.6970 ca         1 M48      -0.060300
     14 C07         -2.9920     2.1930     0.1420 ca         1 M48      -0.127000
     15 C06         -4.1770     1.9460     0.7850 ca         1 M48      -0.072000
     16 C09         -3.0480     0.0100    -0.8650 ca         1 M48      -0.100000
     17 C10         -4.2660    -0.2780    -0.2130 ca         1 M48       0.328000
     18 N01         -4.8450    -1.4880    -0.4090 nb         1 M48      -0.761000
     19 C05         -4.8340     0.7130     0.6230 ca         1 M48      -0.130000
     20 C04         -6.0590     0.3940     1.2620 ca         1 M48      -0.029000
     21 C03         -6.6300    -0.8210     1.0650 ca         1 M48      -0.210000
     22 C02         -5.9730    -1.7580     0.2040 ca         1 M48       0.616900
     23 N02         -6.5130    -2.9920     0.0440 nv         1 M48      -1.068900
     24 H22          4.9110    -1.3630    -1.3660 ha         1 M48       0.133000
     25 H25          7.1110     1.0900     2.3140 ha         1 M48       0.116000
     26 H26          5.2590     2.1450     1.0750 ha         1 M48       0.115000
     27 H151         3.8660     2.1790    -0.9110 hc         1 M48       0.056200
     28 H152         3.8170     0.8140    -2.0170 hc         1 M48       0.056200
     29 H141         2.3690    -0.4390    -0.4350 h1         1 M48       0.035200
     30 H142         2.4460     0.8870     0.7130 h1         1 M48       0.035200
     31 H13          1.4450     2.2550    -1.0490 hn         1 M48       0.402000
     32 H121        -0.0300    -0.2010    -0.5240 h1         1 M48       0.035700
     33 H122        -0.0480     1.2020     0.5310 h1         1 M48       0.035700
     34 H111        -0.9310     2.5640    -1.4400 hc         1 M48       0.054700
     35 H112        -1.0500     1.0670    -2.3510 hc         1 M48       0.054700
     36 H07         -2.4940     3.1470     0.2730 ha         1 M48       0.111000
     37 H09         -2.6170    -0.7510    -1.5060 ha         1 M48       0.129000
     38 H06         -4.6220     2.7000     1.4240 ha         1 M48       0.111000
     39 H04         -6.5320     1.1230     1.9080 ha         1 M48       0.116000
     40 H03         -7.5630    -1.0880     1.5430 ha         1 M48       0.120000
     41 H021        -6.1600    -3.5570    -0.7100 hn         1 M48       0.478000
     42 H022        -7.4830    -3.1310     0.2690 hn         1 M48       0.478000
     43 H24          7.8730    -1.1990     1.7180 ha         1 M48       0.132000
@<TRIPOS>BOND
     1     1     4 1   
     2     2     3 ar  
     3     2     6 ar  
     4     2    25 1   
     5     3     4 ar  
     6     3    43 1   
     7     4     5 ar  
     8     5     7 ar  
     9     5    24 1   
    10     6     7 ar  
    11     6    26 1   
    12     7     8 1   
    13     8     9 1   
    14     8    27 1   
    15     8    28 1   
    16     9    10 1   
    17     9    29 1   
    18     9    30 1   
    19    10    11 1   
    20    10    31 1   
    21    11    12 1   
    22    11    32 1   
    23    11    33 1   
    24    12    13 1   
    25    12    34 1   
    26    12    35 1   
    27    13    14 ar  
    28    13    16 ar  
    29    14    15 ar  
    30    14    36 1   
    31    15    19 ar  
    32    15    38 1   
    33    16    17 ar  
    34    16    37 1   
    35    17    18 ar  
    36    17    19 ar  
    37    18    22 ar  
    38    19    20 ar  
    39    20    21 ar  
    40    20    39 1   
    41    21    22 ar  
    42    21    40 1   
    43    22    23 1   
    44    23    41 1   
    45    23    42 1   
@<TRIPOS>SUBSTRUCTURE
     1 M48         1 TEMP              0 ****  ****    0 ROOT
