@<TRIPOS>MOLECULE
M49
   37    38     1     0     0
SMALL
abcg2


@<TRIPOS>ATOM
      1 O12          3.0720     2.6200     0.9100 o          1 M49      -0.587100
      2 C11          3.9980     2.1640     0.2590 c          1 M49       0.607100
      3 C20          5.2650     2.9480     0.0280 c3         1 M49      -0.181100
      4 N10          3.9830     0.9370    -0.3160 ns         1 M49      -0.147000
      5 C6           2.9900    -0.0520    -0.2650 ca         1 M49      -0.048000
      6 C1           1.6730     0.1850     0.1480 ca         1 M49      -0.073000
      7 C2           0.7820    -0.8670     0.1420 ca         1 M49      -0.122300
      8 C5           3.3610    -1.3340    -0.6760 ca         1 M49      -0.133000
      9 C4           2.4600    -2.3910    -0.6860 ca         1 M49      -0.115000
     10 C3           1.1690    -2.1380    -0.2660 ca         1 M49      -0.051000
     11 N9           0.0850    -3.0030    -0.1650 ns         1 M49      -0.145000
     12 C8          -1.0320    -2.3770     0.2910 c          1 M49       0.563000
     13 O13         -2.1150    -2.8990     0.4570 o          1 M49      -0.520000
     14 C7          -0.6650    -0.9110     0.5370 c5         1 M49      -0.096400
     15 C14         -1.5540     0.0650    -0.2410 c3         1 M49      -0.073400
     16 C15         -2.9310     0.2390     0.3800 c3         1 M49       0.100000
     17 N16         -3.6900     1.2170    -0.3700 ns         1 M49      -0.512900
     18 C17         -4.9810     1.4800    -0.1170 c          1 M49       0.598100
     19 O18         -5.6010     0.9090     0.7720 o          1 M49      -0.604100
     20 C19         -5.6270     2.5080    -1.0130 c3         1 M49      -0.178100
     21 H1           5.6860     3.2410     0.9890 hc         1 M49       0.064033
     22 H2           6.0240     2.4080    -0.5330 hc         1 M49       0.064033
     23 H3           5.0240     3.8630    -0.5130 hc         1 M49       0.064033
     24 H4           4.8250     0.6620    -0.7980 hn         1 M49       0.150000
     25 H5           1.3530     1.1650     0.4640 ha         1 M49       0.153000
     26 H6           4.3800    -1.5150    -0.9950 ha         1 M49       0.112000
     27 H7           2.7750    -3.3750    -1.0080 ha         1 M49       0.124000
     28 H8           0.1080    -3.9800    -0.4150 hn         1 M49       0.173000
     29 H9          -0.7720    -0.7130     1.6110 hc         1 M49       0.099700
     30 H10         -1.0500     1.0360    -0.2570 hc         1 M49       0.051700
     31 H11         -1.6410    -0.2590    -1.2810 hc         1 M49       0.051700
     32 H12         -3.4700    -0.7090     0.3950 h1         1 M49       0.063700
     33 H13         -2.8210     0.5590     1.4210 h1         1 M49       0.063700
     34 H14         -3.2190     1.7360    -1.0930 hn         1 M49       0.309500
     35 H15         -6.3520     2.0140    -1.6620 hc         1 M49       0.058033
     36 H16         -6.1730     3.2290    -0.4060 hc         1 M49       0.058033
     37 H17         -4.9190     3.0460    -1.6410 hc         1 M49       0.058033
@<TRIPOS>BOND
     1     1     2 2   
     2     2     3 1   
     3     2     4 1   
     4     3    21 1   
     5     3    22 1   
     6     3    23 1   
     7     4     5 1   
     8     4    24 1   
     9     5     6 ar  
    10     5     8 ar  
    11     6     7 ar  
    12     6    25 1   
    13     7    10 ar  
    14     7    14 1   
    15     8     9 ar  
    16     8    26 1   
    17     9    10 ar  
    18     9    27 1   
    19    10    11 1   
    20    11    12 1   
    21    11    28 1   
    22    12    13 2   
    23    12    14 1   
    24    14    15 1   
    25    14    29 1   
    26    15    16 1   
    27    15    30 1   
    28    15    31 1   
    29    16    17 1   
    30    16    32 1   
    31    16    33 1   
    32    17    18 1   
    33    17    34 1   
    34    18    19 2   
    35    18    20 1   
    36    20    35 1   
    37    20    36 1   
    38    20    37 1   
@<TRIPOS>SUBSTRUCTURE
     1 M49         1 TEMP              0 ****  ****    0 ROOT
