@<TRIPOS>MOLECULE
M49
   37    38     1     0     0
SMALL
No Charge or Current Charge


@<TRIPOS>ATOM
      1 O12          3.1530     2.8110     0.7690 o          1 M49      -0.587100
      2 C11          4.0860     2.2440     0.2140 c          1 M49       0.607100
      3 C20          5.4240     2.9460    -0.0050 c3         1 M49      -0.181100
      4 N10          4.0460     0.9410    -0.2670 ns         1 M49      -0.147000
      5 C6           3.0240    -0.0490    -0.2740 ca         1 M49      -0.048000
      6 C1           1.7280     0.1650     0.2670 ca         1 M49      -0.073000
      7 C2           0.7940    -0.8800     0.2090 ca         1 M49      -0.122300
      8 C5           3.3390    -1.3030    -0.8570 ca         1 M49      -0.133000
      9 C4           2.3860    -2.3410    -0.9080 ca         1 M49      -0.115000
     10 C3           1.1240    -2.0860    -0.3660 ca         1 M49      -0.051000
     11 N9           0.0150    -2.9150    -0.2650 ns         1 M49      -0.145000
     12 C8          -1.0840    -2.3980     0.3890 c          1 M49       0.563000
     13 O13         -2.0620    -3.0330     0.7640 o          1 M49      -0.520000
     14 C7          -0.6580    -0.9130     0.6840 c5         1 M49      -0.096400
     15 C14         -1.5440     0.1180    -0.0680 c3         1 M49      -0.073400
     16 C15         -3.0260     0.1290     0.3630 c3         1 M49       0.100000
     17 N16         -3.7850     1.1630    -0.3440 ns         1 M49      -0.512900
     18 C17         -5.1180     1.4250    -0.1330 c          1 M49       0.598100
     19 O18         -5.7880     0.8020     0.6770 o          1 M49      -0.604100
     20 C19         -5.6920     2.5490    -0.9860 c3         1 M49      -0.178100
     21 H1           5.4310     3.9710     0.3830 hc         1 M49       0.064033
     22 H2           6.2220     2.3390     0.4380 hc         1 M49       0.064033
     23 H3           5.6730     2.9140    -1.0720 hc         1 M49       0.064033
     24 H4           4.9100     0.6360    -0.6960 hn         1 M49       0.150000
     25 H5           1.4370     1.1080     0.7190 ha         1 M49       0.153000
     26 H6           4.3290    -1.4740    -1.2730 ha         1 M49       0.112000
     27 H7           2.6250    -3.3050    -1.3520 ha         1 M49       0.124000
     28 H8           0.0630    -3.8930    -0.5230 hn         1 M49       0.173000
     29 H9          -0.7760    -0.7260     1.7570 hc         1 M49       0.099700
     30 H10         -1.1350     1.1230     0.0900 hc         1 M49       0.051700
     31 H11         -1.4920    -0.0710    -1.1470 hc         1 M49       0.051700
     32 H12         -3.4850    -0.8460     0.1540 h1         1 M49       0.063700
     33 H13         -3.0940     0.3170     1.4430 h1         1 M49       0.063700
     34 H14         -3.3100     1.7310    -1.0360 hn         1 M49       0.309500
     35 H15         -5.5080     2.3250    -2.0430 hc         1 M49       0.058033
     36 H16         -6.7550     2.7280    -0.7890 hc         1 M49       0.058033
     37 H17         -5.0950     3.4540    -0.8320 hc         1 M49       0.058033
@<TRIPOS>BOND
     1     1     2 2   
     2     2     3 1   
     3     2     4 1   
     4     3    21 1   
     5     3    22 1   
     6     3    23 1   
     7     4     5 1   
     8     4    24 1   
     9     5     6 ar  
    10     5     8 ar  
    11     6     7 ar  
    12     6    25 1   
    13     7    10 ar  
    14     7    14 1   
    15     8     9 ar  
    16     8    26 1   
    17     9    10 ar  
    18     9    27 1   
    19    10    11 1   
    20    11    12 1   
    21    11    28 1   
    22    12    13 2   
    23    12    14 1   
    24    14    15 1   
    25    14    29 1   
    26    15    16 1   
    27    15    30 1   
    28    15    31 1   
    29    16    17 1   
    30    16    32 1   
    31    16    33 1   
    32    17    18 1   
    33    17    34 1   
    34    18    19 2   
    35    18    20 1   
    36    20    35 1   
    37    20    36 1   
    38    20    37 1   
@<TRIPOS>SUBSTRUCTURE
     1 M49         1 TEMP              0 ****  ****    0 ROOT
