@<TRIPOS>MOLECULE
M4A
   22    23     1     0     0
SMALL
No Charge or Current Charge


@<TRIPOS>ATOM
      1 CAA          3.3290    -1.2160     0.0170 c3         1 M4A      -0.149400
      2 NAB          0.4690     2.7660     0.0750 nv         1 M4A      -1.089000
      3 CAC         -2.7640    -1.2070    -0.0820 ca         1 M4A      -0.095000
      4 CAD         -2.9790     0.1780    -0.0540 ca         1 M4A      -0.123000
      5 CAE         -1.4530    -1.7110    -0.0700 ca         1 M4A      -0.094000
      6 CAF         -1.8850     1.0570    -0.0140 ca         1 M4A      -0.085000
      7 CAG          1.8380     0.8370     0.0470 ca         1 M4A      -0.277000
      8 NAH          0.9010    -1.3790    -0.0220 nb         1 M4A      -0.705000
      9 CAI          1.9650    -0.5540     0.0170 ca         1 M4A       0.412300
     10 CAJ          0.5660     1.4000     0.0400 ca         1 M4A       0.361000
     11 CAK         -0.3420    -0.8480    -0.0300 ca         1 M4A       0.306000
     12 CAL         -0.5610     0.5520    -0.0000 ca         1 M4A      -0.129000
     13 HAA          4.0900    -0.5590     0.4540 hc         1 M4A       0.051033
     14 HAAA         3.3230    -2.1450     0.6000 hc         1 M4A       0.051033
     15 HAAB         3.6410    -1.4590    -1.0040 hc         1 M4A       0.051033
     16 HNAB         1.3010     3.3180     0.2740 hn         1 M4A       0.468000
     17 HNAA        -0.4290     3.2010     0.2680 hn         1 M4A       0.468000
     18 HAC         -3.6100    -1.8910    -0.1130 ha         1 M4A       0.114000
     19 HAD         -3.9930     0.5710    -0.0650 ha         1 M4A       0.113000
     20 HAE         -1.2930    -2.7850    -0.0930 ha         1 M4A       0.130000
     21 HAF         -2.0810     2.1260     0.0030 ha         1 M4A       0.104000
     22 HAG          2.7240     1.4630     0.0730 ha         1 M4A       0.117000
@<TRIPOS>BOND
     1     1     9 1   
     2     1    13 1   
     3     1    14 1   
     4     1    15 1   
     5     2    10 1   
     6     2    16 1   
     7     2    17 1   
     8     3     4 ar  
     9     3     5 ar  
    10     3    18 1   
    11     4     6 ar  
    12     4    19 1   
    13     5    11 ar  
    14     5    20 1   
    15     6    12 ar  
    16     6    21 1   
    17     7     9 ar  
    18     7    10 ar  
    19     7    22 1   
    20     8     9 ar  
    21     8    11 ar  
    22    10    12 ar  
    23    11    12 ar  
@<TRIPOS>SUBSTRUCTURE
     1 M4A         1 TEMP              0 ****  ****    0 ROOT
