@<TRIPOS>MOLECULE
M4A
   22    23     1     0     0
SMALL
abcg2


@<TRIPOS>ATOM
      1 CAA          3.3000    -1.2100     0.0160 c3         1 M4A      -0.149400
      2 NAB          0.4570     2.7690    -0.0140 nv         1 M4A      -1.089000
      3 CAC         -2.7310    -1.2050    -0.0300 ca         1 M4A      -0.095000
      4 CAD         -2.9540     0.1830    -0.0580 ca         1 M4A      -0.123000
      5 CAE         -1.4550    -1.7000    -0.0010 ca         1 M4A      -0.094000
      6 CAF         -1.8890     1.0470    -0.0490 ca         1 M4A      -0.085000
      7 CAG          1.8260     0.8110     0.0230 ca         1 M4A      -0.277000
      8 NAH          0.8980    -1.3950     0.0180 nb         1 M4A      -0.705000
      9 CAI          1.9350    -0.5900     0.0190 ca         1 M4A       0.412300
     10 CAJ          0.5860     1.4190     0.0160 ca         1 M4A       0.361000
     11 CAK         -0.3370    -0.8350     0.0050 ca         1 M4A       0.306000
     12 CAL         -0.5650     0.5630    -0.0070 ca         1 M4A      -0.129000
     13 HAA          3.9190    -0.8020     0.8160 hc         1 M4A       0.051033
     14 HAAA         3.2370    -2.2890     0.1370 hc         1 M4A       0.051033
     15 HAAB         3.8160    -0.9990    -0.9230 hc         1 M4A       0.051033
     16 HNAB         1.2780     3.3130     0.1960 hn         1 M4A       0.468000
     17 HNAA        -0.3940     3.1910     0.3140 hn         1 M4A       0.468000
     18 HAC         -3.5740    -1.8850    -0.0360 ha         1 M4A       0.114000
     19 HAD         -3.9640     0.5690    -0.0930 ha         1 M4A       0.113000
     20 HAE         -1.2730    -2.7680     0.0140 ha         1 M4A       0.130000
     21 HAF         -2.0830     2.1110    -0.0850 ha         1 M4A       0.104000
     22 HAG          2.7240     1.4170     0.0400 ha         1 M4A       0.117000
@<TRIPOS>BOND
     1     1     9 1   
     2     1    13 1   
     3     1    14 1   
     4     1    15 1   
     5     2    10 1   
     6     2    16 1   
     7     2    17 1   
     8     3     4 ar  
     9     3     5 ar  
    10     3    18 1   
    11     4     6 ar  
    12     4    19 1   
    13     5    11 ar  
    14     5    20 1   
    15     6    12 ar  
    16     6    21 1   
    17     7     9 ar  
    18     7    10 ar  
    19     7    22 1   
    20     8     9 ar  
    21     8    11 ar  
    22    10    12 ar  
    23    11    12 ar  
@<TRIPOS>SUBSTRUCTURE
     1 M4A         1 TEMP              0 ****  ****    0 ROOT
