@<TRIPOS>MOLECULE
M4B
   26    27     1     0     0
SMALL
abcg2


@<TRIPOS>ATOM
      1 C10         25.1660   -25.1830    28.8370 ca         1 M4B      -0.060000
      2 C13         25.6370   -22.5270    28.1490 ca         1 M4B      -0.114000
      3 C01         22.7190   -28.9140    25.6410 c3         1 M4B      -0.087900
      4 C02         22.6790   -27.4820    26.0510 cc         1 M4B       0.192400
      5 C03         23.7170   -26.7530    26.5990 cd         1 M4B      -0.431700
      6 C04         23.5010   -25.3940    26.9800 cd         1 M4B       0.668200
      7 C06         21.3400   -25.4480    26.1040 c          1 M4B       0.689400
      8 C09         24.5010   -24.6170    27.7460 ca         1 M4B      -0.156900
      9 C11         26.0530   -24.4200    29.5820 ca         1 M4B      -0.114000
     10 C12         26.2980   -23.0940    29.2350 ca         1 M4B      -0.082000
     11 C14         24.7330   -23.2820    27.4140 ca         1 M4B      -0.060000
     12 N05         22.3620   -24.7900    26.7310 nc         1 M4B      -0.654100
     13 N08         21.5350   -26.8140    25.8440 ns         1 M4B      -0.500600
     14 O07         20.2820   -24.9250    25.7880 o          1 M4B      -0.495000
     15 O16         25.1130   -28.5120    27.1000 o          1 M4B      -0.391000
     16 O17         25.9920   -26.6860    26.3450 o          1 M4B      -0.391000
     17 H1          24.9730   -26.2090    29.1210 ha         1 M4B       0.123500
     18 H2          25.8250   -21.4970    27.8760 ha         1 M4B       0.120000
     19 H3          23.6540   -29.1500    25.1360 hc         1 M4B       0.083033
     20 H4          22.6540   -29.5480    26.5260 hc         1 M4B       0.083033
     21 H5          21.8840   -29.1390    24.9800 hc         1 M4B       0.083033
     22 H7          26.5540   -24.8600    30.4350 ha         1 M4B       0.120000
     23 H8          26.9970   -22.5030    29.8130 ha         1 M4B       0.117000
     24 H9          24.2120   -22.8460    26.5730 ha         1 M4B       0.123500
     25 H11         20.7530   -27.2960    25.4170 hn         1 M4B       0.456000
     26 N15         25.0290   -27.3580    26.6940 no         1 M4B       0.680100
@<TRIPOS>BOND
     1     1     8 ar  
     2     1     9 ar  
     3     1    17 1   
     4     2    10 ar  
     5     2    11 ar  
     6     2    18 1   
     7     3     4 1   
     8     3    19 1   
     9     3    20 1   
    10     3    21 1   
    11     4     5 2   
    12     4    13 1   
    13     5     6 1   
    14     5    26 1   
    15     6     8 1   
    16     6    12 2   
    17     7    12 1   
    18     7    13 1   
    19     7    14 2   
    20     8    11 ar  
    21     9    10 ar  
    22     9    22 1   
    23    10    23 1   
    24    11    24 1   
    25    13    25 1   
    26    15    26 1   
    27    16    26 1   
@<TRIPOS>SUBSTRUCTURE
     1 M4B         1 TEMP              0 ****  ****    0 ROOT
