@<TRIPOS>MOLECULE
M4B
   26    27     1     0     0
SMALL
No Charge or Current Charge


@<TRIPOS>ATOM
      1 C10         25.1220   -25.1240    28.9500 ca         1 M4B      -0.060000
      2 C13         25.6880   -22.5220    28.0530 ca         1 M4B      -0.114000
      3 C01         22.6970   -28.8760    25.4520 c3         1 M4B      -0.087900
      4 C02         22.7070   -27.4790    26.0210 cc         1 M4B       0.192400
      5 C03         23.7610   -26.8250    26.6240 cd         1 M4B      -0.431700
      6 C04         23.5090   -25.4730    27.0560 cd         1 M4B       0.668200
      7 C06         21.3040   -25.5290    26.2410 c          1 M4B       0.689400
      8 C09         24.4970   -24.6420    27.7770 ca         1 M4B      -0.156900
      9 C11         26.0350   -24.3180    29.6530 ca         1 M4B      -0.114000
     10 C12         26.3220   -23.0190    29.2030 ca         1 M4B      -0.082000
     11 C14         24.7740   -23.3240    27.3480 ca         1 M4B      -0.060000
     12 N05         22.3410   -24.8900    26.8420 nc         1 M4B      -0.654100
     13 N08         21.5240   -26.8060    25.8650 ns         1 M4B      -0.500600
     14 O07         20.2310   -24.9910    26.0490 o          1 M4B      -0.495000
     15 O16         25.1000   -28.5890    27.2000 o          1 M4B      -0.391000
     16 O17         26.0390   -26.7710    26.4530 o          1 M4B      -0.391000
     17 H1          24.8970   -26.1210    29.3230 ha         1 M4B       0.123500
     18 H2          25.9020   -21.5120    27.7090 ha         1 M4B       0.120000
     19 H3          23.6150   -29.0740    24.8870 hc         1 M4B       0.083033
     20 H4          22.6280   -29.6190    26.2550 hc         1 M4B       0.083033
     21 H5          21.8570   -29.0440    24.7680 hc         1 M4B       0.083033
     22 H7          26.5170   -24.7010    30.5500 ha         1 M4B       0.120000
     23 H8          27.0280   -22.3970    29.7490 ha         1 M4B       0.117000
     24 H9          24.2860   -22.9240    26.4610 ha         1 M4B       0.123500
     25 H11         20.7310   -27.2550    25.4250 hn         1 M4B       0.456000
     26 N15         25.0520   -27.4230    26.8020 no         1 M4B       0.680100
@<TRIPOS>BOND
     1     1     8 ar  
     2     1     9 ar  
     3     1    17 1   
     4     2    10 ar  
     5     2    11 ar  
     6     2    18 1   
     7     3     4 1   
     8     3    19 1   
     9     3    20 1   
    10     3    21 1   
    11     4     5 2   
    12     4    13 1   
    13     5     6 1   
    14     5    26 1   
    15     6     8 1   
    16     6    12 2   
    17     7    12 1   
    18     7    13 1   
    19     7    14 2   
    20     8    11 ar  
    21     9    10 ar  
    22     9    22 1   
    23    10    23 1   
    24    11    24 1   
    25    13    25 1   
    26    15    26 1   
    27    16    26 1   
@<TRIPOS>SUBSTRUCTURE
     1 M4B         1 TEMP              0 ****  ****    0 ROOT
