@<TRIPOS>MOLECULE
M4D
   48    49     1     0     0
SMALL
abcg2


@<TRIPOS>ATOM
      1 N2          -4.6110     4.6050    -0.6430 n8         1 M4D      -0.998200
      2 C17         -4.2190     3.2410    -0.9680 c3         1 M4D       0.150800
      3 C16         -3.6220     2.5400     0.2420 c3         1 M4D      -0.079400
      4 C15         -3.1800     1.1150    -0.0680 c3         1 M4D      -0.076400
      5 C14         -2.6100     0.3970     1.1580 c3         1 M4D      -0.033100
      6 C3          -2.1570    -1.0010     0.8400 ca         1 M4D      -0.039300
      7 C5          -2.9890    -2.0690     1.0890 ca         1 M4D      -0.131000
      8 C4          -2.6130    -3.3800     0.7520 ca         1 M4D      -0.089000
      9 C2          -1.4010    -3.6310     0.1630 ca         1 M4D      -0.105000
     10 C1          -0.8970    -1.2480     0.2350 ca         1 M4D      -0.118000
     11 C8           0.0500    -0.2310    -0.0500 ca         1 M4D      -0.035000
     12 C7           1.2510    -0.5060    -0.6270 ca         1 M4D      -0.174300
     13 C6           1.5180    -1.8810    -0.9500 ca         1 M4D       0.626900
     14 N1           2.6680    -2.2130    -1.5930 nv         1 M4D      -1.073900
     15 N            0.6740    -2.8510    -0.6910 nb         1 M4D      -0.766000
     16 C           -0.5140    -2.5670    -0.1090 ca         1 M4D       0.326000
     17 C10          2.2680     0.5720    -0.8620 c3         1 M4D      -0.027100
     18 C9           3.3480     0.6080     0.2240 c3         1 M4D      -0.078400
     19 C12          4.3800     1.7040    -0.0070 c3         1 M4D      -0.077400
     20 C11          5.4600     1.7370     1.0670 c3         1 M4D      -0.075400
     21 C13          6.4770     2.8490     0.8530 c3         1 M4D      -0.089100
     22 H1          -4.9640     5.0630    -1.4740 hn         1 M4D       0.391500
     23 H2          -5.3880     4.5840     0.0060 hn         1 M4D       0.391500
     24 H4          -5.0450     2.6280    -1.3590 h1         1 M4D       0.026700
     25 H5          -3.4700     3.2830    -1.7630 h1         1 M4D       0.026700
     26 H6          -2.7690     3.1200     0.6080 hc         1 M4D       0.044700
     27 H7          -4.3590     2.5230     1.0520 hc         1 M4D       0.044700
     28 H8          -4.0280     0.5390    -0.4520 hc         1 M4D       0.043700
     29 H9          -2.4320     1.1320    -0.8670 hc         1 M4D       0.043700
     30 H10         -1.7920     0.9890     1.5770 hc         1 M4D       0.046700
     31 H11         -3.3780     0.3530     1.9330 hc         1 M4D       0.046700
     32 H12         -3.9530    -1.8950     1.5540 ha         1 M4D       0.111000
     33 H13         -3.2900    -4.1980     0.9620 ha         1 M4D       0.113000
     34 H14         -1.1020    -4.6380    -0.0990 ha         1 M4D       0.128000
     35 H15         -0.1780     0.7990     0.1980 ha         1 M4D       0.117000
     36 H16          3.4520    -1.5850    -1.5900 hn         1 M4D       0.479500
     37 H17          2.9060    -3.1910    -1.6290 hn         1 M4D       0.479500
     38 H18          2.7350     0.4600    -1.8460 hc         1 M4D       0.049200
     39 H19          1.7580     1.5380    -0.8840 hc         1 M4D       0.049200
     40 H20          2.8640     0.7570     1.1950 hc         1 M4D       0.040200
     41 H21          3.8560    -0.3600     0.2890 hc         1 M4D       0.040200
     42 H22          4.8460     1.5650    -0.9880 hc         1 M4D       0.038200
     43 H23          3.8740     2.6750    -0.0470 hc         1 M4D       0.038200
     44 H24          4.9900     1.8560     2.0480 hc         1 M4D       0.037200
     45 H25          5.9730     0.7700     1.0930 hc         1 M4D       0.037200
     46 H26          7.2340     2.8550     1.6370 hc         1 M4D       0.032367
     47 H27          6.9920     2.7360    -0.1030 hc         1 M4D       0.032367
     48 H28          5.9950     3.8290     0.8500 hc         1 M4D       0.032367
@<TRIPOS>BOND
     1     1     2 1   
     2     1    22 1   
     3     1    23 1   
     4     2     3 1   
     5     2    24 1   
     6     2    25 1   
     7     3     4 1   
     8     3    26 1   
     9     3    27 1   
    10     4     5 1   
    11     4    28 1   
    12     4    29 1   
    13     5     6 1   
    14     5    30 1   
    15     5    31 1   
    16     6     7 ar  
    17     6    10 ar  
    18     7     8 ar  
    19     7    32 1   
    20     8     9 ar  
    21     8    33 1   
    22     9    16 ar  
    23     9    34 1   
    24    10    11 ar  
    25    10    16 ar  
    26    11    12 ar  
    27    11    35 1   
    28    12    13 ar  
    29    12    17 1   
    30    13    14 1   
    31    13    15 ar  
    32    14    36 1   
    33    14    37 1   
    34    15    16 ar  
    35    17    18 1   
    36    17    38 1   
    37    17    39 1   
    38    18    19 1   
    39    18    40 1   
    40    18    41 1   
    41    19    20 1   
    42    19    42 1   
    43    19    43 1   
    44    20    21 1   
    45    20    44 1   
    46    20    45 1   
    47    21    46 1   
    48    21    47 1   
    49    21    48 1   
@<TRIPOS>SUBSTRUCTURE
     1 M4D         1 TEMP              0 ****  ****    0 ROOT
