@<TRIPOS>MOLECULE
M4D
   48    49     1     0     0
SMALL
No Charge or Current Charge


@<TRIPOS>ATOM
      1 N2          -4.4350     4.7540    -0.4720 n8         1 M4D      -0.998200
      2 C17         -4.0360     3.3900    -0.8640 c3         1 M4D       0.150800
      3 C16         -3.5100     2.5850     0.3420 c3         1 M4D      -0.079400
      4 C15         -3.0830     1.1490    -0.0370 c3         1 M4D      -0.076400
      5 C14         -2.5560     0.3340     1.1660 c3         1 M4D      -0.033100
      6 C3          -2.1220    -1.0790     0.7690 ca         1 M4D      -0.039300
      7 C5          -3.0200    -2.1370     1.0100 ca         1 M4D      -0.131000
      8 C4          -2.6840    -3.4530     0.6700 ca         1 M4D      -0.089000
      9 C2          -1.4420    -3.7270     0.0810 ca         1 M4D      -0.105000
     10 C1          -0.8640    -1.3600     0.1670 ca         1 M4D      -0.118000
     11 C8           0.0760    -0.3380    -0.1050 ca         1 M4D      -0.035000
     12 C7           1.3000    -0.6790    -0.7020 ca         1 M4D      -0.174300
     13 C6           1.5180    -2.0360    -0.9940 ca         1 M4D       0.626900
     14 N1           2.6300    -2.5380    -1.5390 nv         1 M4D      -1.073900
     15 N            0.6640    -3.0170    -0.7500 nb         1 M4D      -0.766000
     16 C           -0.5200    -2.6980    -0.1790 ca         1 M4D       0.326000
     17 C10          2.3300     0.4100    -1.0010 c3         1 M4D      -0.027100
     18 C9           3.2790     0.6540     0.1910 c3         1 M4D      -0.078400
     19 C12          4.3260     1.7570    -0.0810 c3         1 M4D      -0.077400
     20 C11          5.2710     2.0010     1.1150 c3         1 M4D      -0.075400
     21 C13          6.3150     3.1010     0.8440 c3         1 M4D      -0.089100
     22 H1          -4.8380     5.2320    -1.2880 hn         1 M4D       0.391500
     23 H2          -5.2230     4.6950     0.1840 hn         1 M4D       0.391500
     24 H4          -4.9070     2.8790    -1.2990 h1         1 M4D       0.026700
     25 H5          -3.2540     3.4590    -1.6330 h1         1 M4D       0.026700
     26 H6          -2.6520     3.1110     0.7800 hc         1 M4D       0.044700
     27 H7          -4.2880     2.5370     1.1140 hc         1 M4D       0.044700
     28 H8          -3.9390     0.6220    -0.4760 hc         1 M4D       0.043700
     29 H9          -2.3100     1.1980    -0.8140 hc         1 M4D       0.043700
     30 H10         -1.7340     0.8720     1.6520 hc         1 M4D       0.046700
     31 H11         -3.3480     0.2830     1.9230 hc         1 M4D       0.046700
     32 H12         -3.9880    -1.9380     1.4640 ha         1 M4D       0.111000
     33 H13         -3.3860    -4.2620     0.8620 ha         1 M4D       0.113000
     34 H14         -1.1880    -4.7510    -0.1800 ha         1 M4D       0.128000
     35 H15         -0.1230     0.7030     0.1340 ha         1 M4D       0.117000
     36 H16          3.4780    -1.9980    -1.4240 hn         1 M4D       0.479500
     37 H17          2.7170    -3.5430    -1.4580 hn         1 M4D       0.479500
     38 H18          2.9190     0.1550    -1.8910 hc         1 M4D       0.049200
     39 H19          1.8180     1.3490    -1.2450 hc         1 M4D       0.049200
     40 H20          2.6840     0.9310     1.0710 hc         1 M4D       0.040200
     41 H21          3.7960    -0.2820     0.4390 hc         1 M4D       0.040200
     42 H22          4.9210     1.4800    -0.9600 hc         1 M4D       0.038200
     43 H23          3.8080     2.6920    -0.3270 hc         1 M4D       0.038200
     44 H24          4.6800     2.2800     1.9960 hc         1 M4D       0.037200
     45 H25          5.7930     1.0680     1.3630 hc         1 M4D       0.037200
     46 H26          6.9620     3.2380     1.7190 hc         1 M4D       0.032367
     47 H27          6.9480     2.8350    -0.0110 hc         1 M4D       0.032367
     48 H28          5.8240     4.0580     0.6280 hc         1 M4D       0.032367
@<TRIPOS>BOND
     1     1     2 1   
     2     1    22 1   
     3     1    23 1   
     4     2     3 1   
     5     2    24 1   
     6     2    25 1   
     7     3     4 1   
     8     3    26 1   
     9     3    27 1   
    10     4     5 1   
    11     4    28 1   
    12     4    29 1   
    13     5     6 1   
    14     5    30 1   
    15     5    31 1   
    16     6     7 ar  
    17     6    10 ar  
    18     7     8 ar  
    19     7    32 1   
    20     8     9 ar  
    21     8    33 1   
    22     9    16 ar  
    23     9    34 1   
    24    10    11 ar  
    25    10    16 ar  
    26    11    12 ar  
    27    11    35 1   
    28    12    13 ar  
    29    12    17 1   
    30    13    14 1   
    31    13    15 ar  
    32    14    36 1   
    33    14    37 1   
    34    15    16 ar  
    35    17    18 1   
    36    17    38 1   
    37    17    39 1   
    38    18    19 1   
    39    18    40 1   
    40    18    41 1   
    41    19    20 1   
    42    19    42 1   
    43    19    43 1   
    44    20    21 1   
    45    20    44 1   
    46    20    45 1   
    47    21    46 1   
    48    21    47 1   
    49    21    48 1   
@<TRIPOS>SUBSTRUCTURE
     1 M4D         1 TEMP              0 ****  ****    0 ROOT
