@<TRIPOS>MOLECULE
M4E
   22    23     1     0     0
SMALL
abcg2


@<TRIPOS>ATOM
      1 C10         -2.6340    -1.6850    -0.0060 ca         1 M4E      -0.149000
      2 C01          4.3080    -0.2100    -0.0010 c3         1 M4E       0.097300
      3 C03          1.8820    -0.4170     0.0040 c          1 M4E       0.550800
      4 C04          0.5890     0.3000     0.0180 cc         1 M4E       0.297900
      5 C07         -1.5710     0.8440     0.0320 ca         1 M4E      -0.052200
      6 C08         -0.7160    -0.2710     0.0130 ca         1 M4E      -0.185900
      7 C09         -1.2630    -1.5620    -0.0070 ca         1 M4E      -0.020000
      8 C11         -3.4740    -0.5520     0.0140 ca         1 M4E      -0.070000
      9 C12         -2.9650     0.7260     0.0330 ca         1 M4E      -0.134000
     10 N02          2.9780     0.3490     0.0110 ns         1 M4E      -0.494900
     11 N05          0.5180     1.6120     0.0380 nd         1 M4E      -0.517100
     12 N06         -0.7630     1.9340     0.0470 na         1 M4E      -0.045400
     13 O13          1.9140    -1.6420    -0.0130 o          1 M4E      -0.604100
     14 H1          -3.0820    -2.6700    -0.0210 ha         1 M4E       0.117000
     15 H2           5.0240     0.6070     0.0130 h1         1 M4E       0.040367
     16 H3           4.4880    -0.8400     0.8710 h1         1 M4E       0.040367
     17 H4           4.4870    -0.8080    -0.8950 h1         1 M4E       0.040367
     18 H5          -0.6240    -2.4340    -0.0220 ha         1 M4E       0.144000
     19 H6          -4.5460    -0.6940     0.0140 ha         1 M4E       0.114000
     20 H7          -3.6110     1.5930     0.0480 ha         1 M4E       0.120000
     21 H8           2.8720     1.3500     0.0240 hn         1 M4E       0.332500
     22 H9          -1.0340     2.9040     0.0600 hn         1 M4E       0.379000
@<TRIPOS>BOND
     1     1     7 ar  
     2     1     8 ar  
     3     1    14 1   
     4     2    10 1   
     5     2    15 1   
     6     2    16 1   
     7     2    17 1   
     8     3     4 1   
     9     3    10 1   
    10     3    13 2   
    11     4     6 1   
    12     4    11 2   
    13     5     6 ar  
    14     5     9 ar  
    15     5    12 1   
    16     6     7 ar  
    17     7    18 1   
    18     8     9 ar  
    19     8    19 1   
    20     9    20 1   
    21    10    21 1   
    22    11    12 1   
    23    12    22 1   
@<TRIPOS>SUBSTRUCTURE
     1 M4E         1 TEMP              0 ****  ****    0 ROOT
