@<TRIPOS>MOLECULE
M4E
   22    23     1     0     0
SMALL
No Charge or Current Charge


@<TRIPOS>ATOM
      1 C10         -2.6360    -1.7040    -0.0060 ca         1 M4E      -0.149000
      2 C01          4.3710    -0.2440    -0.0010 c3         1 M4E       0.097300
      3 C03          1.8570    -0.4650     0.0020 c          1 M4E       0.550800
      4 C04          0.5900     0.3570     0.0180 cc         1 M4E       0.297900
      5 C07         -1.5950     0.8660     0.0310 ca         1 M4E      -0.052200
      6 C08         -0.7510    -0.2020     0.0130 ca         1 M4E      -0.185900
      7 C09         -1.2350    -1.5210    -0.0070 ca         1 M4E      -0.020000
      8 C11         -3.5090    -0.5880     0.0140 ca         1 M4E      -0.070000
      9 C12         -2.9870     0.7230     0.0330 ca         1 M4E      -0.134000
     10 N02          3.0110     0.2990     0.0110 ns         1 M4E      -0.494900
     11 N05          0.5500     1.7110     0.0390 nd         1 M4E      -0.517100
     12 N06         -0.8190     2.0040     0.0470 na         1 M4E      -0.045400
     13 O13          1.9120    -1.6910    -0.0170 o          1 M4E      -0.604100
     14 H1          -3.0480    -2.7100    -0.0200 ha         1 M4E       0.117000
     15 H2           5.0950     0.5800     0.0100 h1         1 M4E       0.040367
     16 H3           4.5260    -0.8740     0.8850 h1         1 M4E       0.040367
     17 H4           4.5210    -0.8460    -0.9070 h1         1 M4E       0.040367
     18 H5          -0.5660    -2.3780    -0.0220 ha         1 M4E       0.144000
     19 H6          -4.5860    -0.7430     0.0140 ha         1 M4E       0.114000
     20 H7          -3.6460     1.5890     0.0480 ha         1 M4E       0.120000
     21 H8           2.8810     1.3050     0.0270 hn         1 M4E       0.332500
     22 H9          -1.1600     2.9650     0.0630 hn         1 M4E       0.379000
@<TRIPOS>BOND
     1     1     7 ar  
     2     1     8 ar  
     3     1    14 1   
     4     2    10 1   
     5     2    15 1   
     6     2    16 1   
     7     2    17 1   
     8     3     4 1   
     9     3    10 1   
    10     3    13 2   
    11     4     6 1   
    12     4    11 2   
    13     5     6 ar  
    14     5     9 ar  
    15     5    12 1   
    16     6     7 ar  
    17     7    18 1   
    18     8     9 ar  
    19     8    19 1   
    20     9    20 1   
    21    10    21 1   
    22    11    12 1   
    23    12    22 1   
@<TRIPOS>SUBSTRUCTURE
     1 M4E         1 TEMP              0 ****  ****    0 ROOT
