@<TRIPOS>MOLECULE
M4F
   18    18     1     0     0
SMALL
abcg2


@<TRIPOS>ATOM
      1 C11          4.3710    -1.1090    18.9950 c3         1 M4F       0.509000
      2 C01          5.5660     3.1690    18.6200 ca         1 M4F      -0.083500
      3 C02          5.4020     1.9340    19.2300 ca         1 M4F      -0.131500
      4 C03          4.2370     1.2240    18.9980 ca         1 M4F       0.045100
      5 C04          3.2390     1.7260    18.1800 ca         1 M4F      -0.131500
      6 C05          3.4270     2.9580    17.5720 ca         1 M4F      -0.083500
      7 C06          4.5900     3.6960    17.7770 ca         1 M4F      -0.120600
      8 C07          4.7910     5.0510    17.0980 c          1 M4F       0.714600
      9 F12          5.6520    -1.1330    18.6230 f          1 M4F      -0.122000
     10 F13          4.1540    -2.1360    19.8010 f          1 M4F      -0.122000
     11 F14          3.6480    -1.2930    17.8870 f          1 M4F      -0.122000
     12 O08          3.8810     5.4280    16.3360 o          1 M4F      -0.712500
     13 O09          5.8480     5.6500    17.3670 o          1 M4F      -0.712500
     14 O10          4.0440     0.0080    19.6520 os         1 M4F      -0.408100
     15 H041         2.3210     1.1730    18.0280 ha         1 M4F       0.107000
     16 H051         2.6530     3.3520    16.9290 ha         1 M4F       0.134500
     17 H011         6.4730     3.7320    18.7990 ha         1 M4F       0.134500
     18 H021         6.1650     1.5370    19.8870 ha         1 M4F       0.107000
@<TRIPOS>BOND
     1     1     9 1   
     2     1    10 1   
     3     1    11 1   
     4     1    14 1   
     5     2     3 ar  
     6     2     7 ar  
     7     2    17 1   
     8     3     4 ar  
     9     3    18 1   
    10     4     5 ar  
    11     4    14 1   
    12     5     6 ar  
    13     5    15 1   
    14     6     7 ar  
    15     6    16 1   
    16     7     8 1   
    17     8    12 1   
    18     8    13 1   
@<TRIPOS>SUBSTRUCTURE
     1 M4F         1 TEMP              0 ****  ****    0 ROOT
