@<TRIPOS>MOLECULE
M4F
   18    18     1     0     0
SMALL
No Charge or Current Charge


@<TRIPOS>ATOM
      1 C11          3.9960    -1.2380    19.0520 c3         1 M4F       0.509000
      2 C01          5.5160     3.4540    18.8510 ca         1 M4F      -0.083500
      3 C02          5.5440     2.1550    19.3870 ca         1 M4F      -0.131500
      4 C03          4.7040     1.1510    18.8790 ca         1 M4F       0.045100
      5 C04          3.8250     1.4620    17.8180 ca         1 M4F      -0.131500
      6 C05          3.7960     2.7620    17.2810 ca         1 M4F      -0.083500
      7 C06          4.6400     3.7780    17.7890 ca         1 M4F      -0.120600
      8 C07          4.6070     5.1830    17.2060 c          1 M4F       0.714600
      9 F12          4.2150    -1.5780    17.7600 f          1 M4F      -0.122000
     10 F13          4.3000    -2.3220    19.7990 f          1 M4F      -0.122000
     11 F14          2.6690    -1.0150    19.2050 f          1 M4F      -0.122000
     12 O08          3.8340     5.4180    16.2870 o          1 M4F      -0.712500
     13 O09          5.3550     6.0290    17.6760 o          1 M4F      -0.712500
     14 O10          4.7890    -0.1020    19.4580 os         1 M4F      -0.408100
     15 H041         3.1590     0.7180    17.3950 ha         1 M4F       0.107000
     16 H051         3.1110     2.9780    16.4640 ha         1 M4F       0.134500
     17 H011         6.1790     4.2100    19.2660 ha         1 M4F       0.134500
     18 H021         6.2240     1.9250    20.2040 ha         1 M4F       0.107000
@<TRIPOS>BOND
     1     1     9 1   
     2     1    10 1   
     3     1    11 1   
     4     1    14 1   
     5     2     3 ar  
     6     2     7 ar  
     7     2    17 1   
     8     3     4 ar  
     9     3    18 1   
    10     4     5 ar  
    11     4    14 1   
    12     5     6 ar  
    13     5    15 1   
    14     6     7 ar  
    15     6    16 1   
    16     7     8 1   
    17     8    12 1   
    18     8    13 1   
@<TRIPOS>SUBSTRUCTURE
     1 M4F         1 TEMP              0 ****  ****    0 ROOT
