@<TRIPOS>MOLECULE
M4G
   47    49     1     0     0
SMALL
abcg2


@<TRIPOS>ATOM
      1 O3           3.8260   -12.0660   -21.7560 os         1 M4G      -0.299100
      2 C4          14.3950    -6.0190   -20.9910 ca         1 M4G       0.023000
      3 C5          14.1590    -7.3470   -21.3450 ca         1 M4G      -0.380500
      4 O4           0.6070   -13.5920   -21.6040 o          1 M4G      -0.711500
      5 C6          12.9450    -7.9510   -21.0300 ca         1 M4G       0.023000
      6 N1           9.2700    -4.4260   -18.3110 nc         1 M4G      -0.836000
      7 C7          11.9600    -7.2410   -20.3650 ca         1 M4G      -0.188500
      8 C8           6.8860    -6.9650   -19.0590 c          1 M4G       0.637900
      9 C9           6.2540    -9.0380   -20.2500 ca         1 M4G      -0.116000
     10 O5           2.4440   -14.1430   -22.7780 o          1 M4G      -0.711500
     11 C10          5.0160    -9.2680   -19.6580 ca         1 M4G      -0.096500
     12 C11          4.1750   -10.2670   -20.1430 ca         1 M4G      -0.165500
     13 C12          4.5690   -11.0610   -21.2190 ca         1 M4G       0.164100
     14 N3          14.9590    -8.3800   -23.7870 n8         1 M4G      -0.991100
     15 C13          2.5150   -12.2870   -21.2400 c3         1 M4G       0.007600
     16 C14          1.8060   -13.4510   -21.9560 c          1 M4G       0.722000
     17 C15          5.8170   -10.8330   -21.8070 ca         1 M4G      -0.165500
     18 N4           9.2720    -6.4500   -19.3530 nd         1 M4G      -0.606800
     19 C            8.0540    -4.9350   -18.2030 cd         1 M4G       0.775400
     20 O           15.3900    -9.6160   -21.6960 o          1 M4G      -0.544000
     21 C1           9.9590    -5.3780   -19.0140 cc         1 M4G       0.838900
     22 C16          6.6450    -9.8340   -21.3320 ca         1 M4G      -0.096500
     23 C2          12.1900    -5.9070   -19.9970 ca         1 M4G       0.386000
     24 C3          13.4190    -5.3090   -20.3190 ca         1 M4G      -0.188500
     25 N5           8.0130    -6.1630   -18.8170 n          1 M4G      -0.120500
     26 N6           7.1630    -8.0560   -19.8000 ns         1 M4G      -0.105000
     27 O1          16.6230    -7.5010   -22.1810 o          1 M4G      -0.544000
     28 O2           5.7930    -6.6400   -18.6060 o          1 M4G      -0.630100
     29 H1          15.3370    -5.5510   -21.2360 ha         1 M4G       0.133000
     30 H3          12.7650    -8.9840   -21.2970 ha         1 M4G       0.133000
     31 H4          11.0240    -7.7150   -20.1170 ha         1 M4G       0.134500
     32 H5          11.5800    -4.2160   -19.0270 hn         1 M4G       0.515000
     33 H6           4.6970    -8.6710   -18.8190 ha         1 M4G       0.113500
     34 H7           3.2190   -10.4160   -19.6630 ha         1 M4G       0.131500
     35 H8          14.1110    -8.9250   -23.9150 hn         1 M4G       0.471000
     36 H9          14.8870    -7.4710   -24.2360 hn         1 M4G       0.471000
     37 H10          1.9100   -11.3830   -21.3550 h1         1 M4G       0.021200
     38 H11          2.5650   -12.5250   -20.1730 h1         1 M4G       0.021200
     39 H12          6.1240   -11.4470   -22.6440 ha         1 M4G       0.131500
     40 H13          7.0920    -3.4120   -17.3020 hn         1 M4G       0.518500
     41 H14          6.1080    -4.7940   -17.6970 hn         1 M4G       0.518500
     42 H15          7.6060    -9.6650   -21.8030 ha         1 M4G       0.113500
     43 H16         13.6000    -4.2800   -20.0350 ha         1 M4G       0.134500
     44 H17          8.1160    -8.1200   -20.1350 hn         1 M4G       0.178000
     45 N            7.0200    -4.3840   -17.5570 nv         1 M4G      -1.059900
     46 N2          11.2720    -5.1370   -19.3040 nu         1 M4G      -0.925900
     47 S           15.3970    -8.2640   -22.2040 sy         1 M4G       1.167600
@<TRIPOS>BOND
     1     1    13 1   
     2     1    15 1   
     3     2     3 ar  
     4     2    24 ar  
     5     2    29 1   
     6     3     5 ar  
     7     3    47 1   
     8     4    16 1   
     9     5     7 ar  
    10     5    30 1   
    11     6    19 2   
    12     6    21 1   
    13     7    23 ar  
    14     7    31 1   
    15     8    25 1   
    16     8    26 1   
    17     8    28 2   
    18     9    11 ar  
    19     9    22 ar  
    20     9    26 1   
    21    10    16 1   
    22    11    12 ar  
    23    11    33 1   
    24    12    13 ar  
    25    12    34 1   
    26    13    17 ar  
    27    14    35 1   
    28    14    36 1   
    29    14    47 1   
    30    15    16 1   
    31    15    37 1   
    32    15    38 1   
    33    17    22 ar  
    34    17    39 1   
    35    18    21 2   
    36    18    25 1   
    37    19    25 1   
    38    19    45 1   
    39    20    47 2   
    40    21    46 1   
    41    22    42 1   
    42    23    24 ar  
    43    23    46 1   
    44    24    43 1   
    45    26    44 1   
    46    27    47 2   
    47    32    46 1   
    48    40    45 1   
    49    41    45 1   
@<TRIPOS>SUBSTRUCTURE
     1 M4G         1 TEMP              0 ****  ****    0 ROOT
