@<TRIPOS>MOLECULE
M4G
   47    49     1     0     0
SMALL
No Charge or Current Charge


@<TRIPOS>ATOM
      1 O3           3.5630   -12.2120   -21.6070 os         1 M4G      -0.299100
      2 C4          14.3440    -5.7470   -21.2210 ca         1 M4G       0.023000
      3 C5          14.3740    -7.1430   -21.4090 ca         1 M4G      -0.380500
      4 O4           0.2310   -13.6120   -21.8190 o          1 M4G      -0.711500
      5 C6          13.3940    -7.9540   -20.8010 ca         1 M4G       0.023000
      6 N1           9.4680    -4.6180   -18.1920 nc         1 M4G      -0.836000
      7 C7          12.3890    -7.3630   -20.0180 ca         1 M4G      -0.188500
      8 C8           6.8900    -6.9600   -19.1000 c          1 M4G       0.637900
      9 C9           6.0970    -9.1370   -20.2370 ca         1 M4G      -0.116000
     10 O5           2.1060   -14.3200   -22.6010 o          1 M4G      -0.711500
     11 C10          4.7160    -9.0870   -19.9430 ca         1 M4G      -0.096500
     12 C11          3.8540   -10.1040   -20.3930 ca         1 M4G      -0.165500
     13 C12          4.3620   -11.1870   -21.1420 ca         1 M4G       0.164100
     14 N3          14.9950    -7.7770   -23.8910 n8         1 M4G      -0.991100
     15 C13          2.1360   -12.2520   -21.3610 c3         1 M4G       0.007600
     16 C14          1.4400   -13.5000   -21.9800 c          1 M4G       0.722000
     17 C15          5.7340   -11.2370   -21.4320 ca         1 M4G      -0.165500
     18 N4           9.4000    -6.5970   -19.3650 nd         1 M4G      -0.606800
     19 C            8.2750    -5.1030   -18.2240 cd         1 M4G       0.775400
     20 O           15.7330    -9.3170   -22.1520 o          1 M4G      -0.544000
     21 C1          10.0800    -5.5810   -18.8860 cc         1 M4G       0.838900
     22 C16          6.5950   -10.2210   -20.9840 ca         1 M4G      -0.096500
     23 C2          12.3490    -5.9710   -19.8390 ca         1 M4G       0.386000
     24 C3          13.3340    -5.1710   -20.4340 ca         1 M4G      -0.188500
     25 N5           8.1140    -6.2840   -18.9120 n          1 M4G      -0.120500
     26 N6           7.0280    -8.1430   -19.8150 ns         1 M4G      -0.105000
     27 O1          16.8420    -7.0160   -22.4500 o          1 M4G      -0.544000
     28 O2           5.8200    -6.5270   -18.6770 o          1 M4G      -0.630100
     29 H1          15.0970    -5.1070   -21.6810 ha         1 M4G       0.133000
     30 H3          13.4060    -9.0360   -20.9250 ha         1 M4G       0.133000
     31 H4          11.6480    -7.9960   -19.5410 ha         1 M4G       0.134500
     32 H5          11.5760    -4.4230   -18.7510 hn         1 M4G       0.515000
     33 H6           4.2880    -8.2710   -19.3690 ha         1 M4G       0.113500
     34 H7           2.7980   -10.0360   -20.1500 ha         1 M4G       0.131500
     35 H8          15.0270    -8.7510   -24.1800 hn         1 M4G       0.471000
     36 H9          14.0170    -7.6200   -23.6630 hn         1 M4G       0.471000
     37 H10          1.6550   -11.3610   -21.7840 h1         1 M4G       0.021200
     38 H11          1.9400   -12.2670   -20.2810 h1         1 M4G       0.021200
     39 H12          6.1300   -12.0690   -22.0090 ha         1 M4G       0.131500
     40 H13          7.5730    -3.4220   -17.4590 hn         1 M4G       0.518500
     41 H14          6.3860    -4.6300   -17.8120 hn         1 M4G       0.518500
     42 H15          7.6560   -10.2800   -21.2210 ha         1 M4G       0.113500
     43 H16         13.3170    -4.0940   -20.2950 ha         1 M4G       0.134500
     44 H17          7.9850    -8.3300   -20.0870 hn         1 M4G       0.178000
     45 N            7.3480    -4.4010   -17.5810 nv         1 M4G      -1.059900
     46 N2          11.3770    -5.3660   -19.0580 nu         1 M4G      -0.925900
     47 S           15.6630    -7.8810   -22.4070 sy         1 M4G       1.167600
@<TRIPOS>BOND
     1     1    13 1   
     2     1    15 1   
     3     2     3 ar  
     4     2    24 ar  
     5     2    29 1   
     6     3     5 ar  
     7     3    47 1   
     8     4    16 1   
     9     5     7 ar  
    10     5    30 1   
    11     6    19 2   
    12     6    21 1   
    13     7    23 ar  
    14     7    31 1   
    15     8    25 1   
    16     8    26 1   
    17     8    28 2   
    18     9    11 ar  
    19     9    22 ar  
    20     9    26 1   
    21    10    16 1   
    22    11    12 ar  
    23    11    33 1   
    24    12    13 ar  
    25    12    34 1   
    26    13    17 ar  
    27    14    35 1   
    28    14    36 1   
    29    14    47 1   
    30    15    16 1   
    31    15    37 1   
    32    15    38 1   
    33    17    22 ar  
    34    17    39 1   
    35    18    21 2   
    36    18    25 1   
    37    19    25 1   
    38    19    45 1   
    39    20    47 2   
    40    21    46 1   
    41    22    42 1   
    42    23    24 ar  
    43    23    46 1   
    44    24    43 1   
    45    26    44 1   
    46    27    47 2   
    47    32    46 1   
    48    40    45 1   
    49    41    45 1   
@<TRIPOS>SUBSTRUCTURE
     1 M4G         1 TEMP              0 ****  ****    0 ROOT
