@<TRIPOS>MOLECULE
M4H
   44    47     1     0     0
SMALL
bcc


@<TRIPOS>ATOM
      1 C5         107.7390   162.6510   100.3480 cc         1 M4H       0.076000
      2 C6         108.1680   161.7080    99.4480 cd         1 M4H      -0.304400
      3 C7         108.9720   160.5370   100.0090 c          1 M4H       0.939800
      4 C3         106.7200   163.9850    98.7130 cc         1 M4H      -0.027000
      5 C2         107.0960   163.1060    97.7580 cd         1 M4H      -0.074100
      6 C1         107.8430   161.8870    98.0600 c          1 M4H       0.559500
      7 C12        106.5510   164.6360   101.0660 c3         1 M4H       0.211800
      8 C13        105.1640   164.2490   101.6210 c5         1 M4H       0.063700
      9 C14        104.0410   164.4510   100.5940 c5         1 M4H      -0.086900
     10 C15        103.8480   165.9600   100.5580 c5         1 M4H      -0.081400
     11 C16        104.0170   166.3980   102.0220 c5         1 M4H      -0.081400
     12 C17        104.7810   165.2570   102.7260 c5         1 M4H      -0.086900
     13 C19        105.9430   162.4030   103.1540 ca         1 M4H       0.434800
     14 C20        105.8350   160.9930   103.1830 ca         1 M4H      -0.173100
     15 C21        105.0190   160.6210   102.0760 cc         1 M4H      -0.165200
     16 C22        104.6790   161.7780   101.4440 cd         1 M4H      -0.095100
     17 C23        106.5190   160.3260   104.1960 ca         1 M4H      -0.021000
     18 C24        107.2550   161.0890   105.0850 ca         1 M4H      -0.276300
     19 C25        107.2930   162.4790   104.9400 ca         1 M4H       0.418200
     20 N18        105.2130   162.8680   102.0910 na         1 M4H      -0.170100
     21 N26        106.6520   163.1450   103.9900 nb         1 M4H      -0.707000
     22 N4         107.0360   163.7460   100.0230 na         1 M4H      -0.491200
     23 O10        108.1190   161.1580    97.0930 o          1 M4H      -0.598100
     24 O11        106.8120   163.3080    96.4630 oh         1 M4H      -0.520100
     25 O8         109.4000   159.6960    99.2010 o          1 M4H      -0.820300
     26 O9         109.1330   160.5300   101.2490 o          1 M4H      -0.820300
     27 H1         107.9820   162.5350   101.3940 h4         1 M4H       0.182000
     28 H2         106.1840   164.8980    98.4910 h4         1 M4H       0.134000
     29 H3         107.2750   164.6260   101.8810 h1         1 M4H       0.068200
     30 H4         106.5300   165.6530   100.6750 h1         1 M4H       0.068200
     31 H5         103.1310   163.9780   100.9750 hc         1 M4H       0.061700
     32 H6         104.2430   164.0160    99.6150 hc         1 M4H       0.061700
     33 H7         104.5980   166.4290    99.9180 hc         1 M4H       0.040200
     34 H8         102.8770   166.2330   100.1460 hc         1 M4H       0.040200
     35 H9         104.5420   167.3490   102.1000 hc         1 M4H       0.040200
     36 H10        103.0430   166.5380   102.4910 hc         1 M4H       0.040200
     37 H11        104.1400   164.7580   103.4540 hc         1 M4H       0.061700
     38 H12        105.6550   165.6130   103.2700 hc         1 M4H       0.061700
     39 H13        104.7220   159.6270   101.7830 ha         1 M4H       0.158000
     40 H14        104.0760   161.9020   100.5600 h4         1 M4H       0.161000
     41 H15        106.4830   159.2470   104.2820 ha         1 M4H       0.136000
     42 H16        107.8090   160.6240   105.8890 ha         1 M4H       0.129000
     43 H17        107.8780   163.0750   105.6310 h4         1 M4H       0.002100
     44 H18        107.1980   162.5380    96.0060 ho         1 M4H       0.448000
@<TRIPOS>BOND
     1     1     2 2   
     2     1    22 1   
     3     1    27 1   
     4     2     3 1   
     5     2     6 1   
     6     3    25 1   
     7     3    26 1   
     8     4     5 2   
     9     4    22 1   
    10     4    28 1   
    11     5     6 1   
    12     5    24 1   
    13     6    23 2   
    14     7     8 1   
    15     7    22 1   
    16     7    29 1   
    17     7    30 1   
    18     8     9 1   
    19     8    12 1   
    20     8    20 1   
    21     9    10 1   
    22     9    31 1   
    23     9    32 1   
    24    10    11 1   
    25    10    33 1   
    26    10    34 1   
    27    11    12 1   
    28    11    35 1   
    29    11    36 1   
    30    12    37 1   
    31    12    38 1   
    32    13    14 ar  
    33    13    20 1   
    34    13    21 ar  
    35    14    15 1   
    36    14    17 ar  
    37    15    16 2   
    38    15    39 1   
    39    16    20 1   
    40    16    40 1   
    41    17    18 ar  
    42    17    41 1   
    43    18    19 ar  
    44    18    42 1   
    45    19    21 ar  
    46    19    43 1   
    47    24    44 1   
@<TRIPOS>SUBSTRUCTURE
     1 M4H         1 TEMP              0 ****  ****    0 ROOT
