@<TRIPOS>MOLECULE
M4H
   44    47     1     0     0
SMALL
No Charge or Current Charge


@<TRIPOS>ATOM
      1 C5         107.7970   162.5860   100.2460 cc         1 M4H       0.026000
      2 C6         108.2480   161.7640    99.2200 cd         1 M4H      -0.304400
      3 C7         109.0290   160.5550    99.6110 c          1 M4H       0.729200
      4 C3         106.7730   164.1270    98.6060 cc         1 M4H      -0.077000
      5 C2         107.2170   163.3060    97.6010 cd         1 M4H      -0.074100
      6 C1         107.9770   162.0610    97.8150 c          1 M4H       0.559500
      7 C12        106.5170   164.5880   101.0560 c3         1 M4H       0.211800
      8 C13        105.1200   164.1770   101.6480 c5         1 M4H       0.093000
      9 C14        103.9400   164.3580   100.6330 c5         1 M4H      -0.086900
     10 C15        103.7940   165.8990   100.4850 c5         1 M4H      -0.081400
     11 C16        104.1940   166.4580   101.8830 c5         1 M4H      -0.081400
     12 C17        104.5990   165.2000   102.7090 c5         1 M4H      -0.086900
     13 C19        105.9410   162.3900   103.3200 ca         1 M4H       0.369500
     14 C20        105.7920   161.0280   103.4730 ca         1 M4H      -0.107800
     15 C21        104.9500   160.5400   102.4300 cc         1 M4H      -0.215200
     16 C22        104.6120   161.6340   101.6530 cd         1 M4H      -0.145100
     17 C23        106.4190   160.3210   104.5040 ca         1 M4H      -0.003000
     18 C24        107.2150   161.0780   105.3800 ca         1 M4H      -0.193000
     19 C25        107.3340   162.4670   105.1700 ca         1 M4H       0.352900
     20 N18        105.2070   162.8050   102.2020 na         1 M4H      -0.199400
     21 N26        106.7140   163.1210   104.1570 nb         1 M4H      -0.707000
     22 N4         107.0330   163.7430    99.9400 na         1 M4H      -0.491200
     23 O10        108.3290   161.3840    96.8510 o          1 M4H      -0.598100
     24 O11        106.9790   163.5980    96.2910 oh         1 M4H      -0.559100
     25 O8         109.4540   159.7830    98.7680 o          1 M4H      -0.715000
     26 O9         109.2370   160.3670   100.8010 o          1 M4H      -0.715000
     27 H1         107.9790   162.3880   101.3000 h4         1 M4H       0.232000
     28 H2         106.2140   165.0420    98.4330 h4         1 M4H       0.184000
     29 H3         107.2530   164.5730   101.8700 h1         1 M4H       0.068200
     30 H4         106.4820   165.6270   100.7080 h1         1 M4H       0.068200
     31 H5         103.0100   163.9250   101.0220 hc         1 M4H       0.061700
     32 H6         104.1290   163.8700    99.6700 hc         1 M4H       0.061700
     33 H7         104.4520   166.2920    99.7020 hc         1 M4H       0.040200
     34 H8         102.7720   166.1820   100.2060 hc         1 M4H       0.040200
     35 H9         105.0260   167.1660   101.7980 hc         1 M4H       0.040200
     36 H10        103.3690   167.0000   102.3600 hc         1 M4H       0.040200
     37 H11        103.7340   164.7990   103.2510 hc         1 M4H       0.061700
     38 H12        105.3520   165.4430   103.4670 hc         1 M4H       0.061700
     39 H13        104.6440   159.5110   102.2500 ha         1 M4H       0.208000
     40 H14        104.0030   161.6590   100.7530 h4         1 M4H       0.211000
     41 H15        106.3000   159.2460   104.6180 ha         1 M4H       0.118000
     42 H16        107.7360   160.6040   106.2070 ha         1 M4H       0.111000
     43 H17        107.9490   163.0750   105.8320 h4         1 M4H       0.002100
     44 H18        107.3930   162.8650    95.7730 ho         1 M4H       0.487000
@<TRIPOS>BOND
     1     1     2 2   
     2     1    22 1   
     3     1    27 1   
     4     2     3 1   
     5     2     6 1   
     6     3    25 1   
     7     3    26 1   
     8     4     5 2   
     9     4    22 1   
    10     4    28 1   
    11     5     6 1   
    12     5    24 1   
    13     6    23 2   
    14     7     8 1   
    15     7    22 1   
    16     7    29 1   
    17     7    30 1   
    18     8     9 1   
    19     8    12 1   
    20     8    20 1   
    21     9    10 1   
    22     9    31 1   
    23     9    32 1   
    24    10    11 1   
    25    10    33 1   
    26    10    34 1   
    27    11    12 1   
    28    11    35 1   
    29    11    36 1   
    30    12    37 1   
    31    12    38 1   
    32    13    14 ar  
    33    13    20 1   
    34    13    21 ar  
    35    14    15 1   
    36    14    17 ar  
    37    15    16 2   
    38    15    39 1   
    39    16    20 1   
    40    16    40 1   
    41    17    18 ar  
    42    17    41 1   
    43    18    19 ar  
    44    18    42 1   
    45    19    21 ar  
    46    19    43 1   
    47    24    44 1   
@<TRIPOS>SUBSTRUCTURE
     1 M4H         1 TEMP              0 ****  ****    0 ROOT
