@<TRIPOS>MOLECULE
M4I
   30    31     1     0     0
SMALL
abcg2


@<TRIPOS>ATOM
      1 N1           3.1790    16.5190    58.0650 ns         1 M4I      -0.504900
      2 N3           3.5490    20.4610    62.2130 na         1 M4I      -0.048400
      3 C4           5.1380    17.4730    60.0720 ca         1 M4I       0.307900
      4 C5           5.6010    19.2010    61.5070 ca         1 M4I       0.350900
      5 C6           4.2370    19.5000    61.5650 ca         1 M4I      -0.110200
      6 C7           2.0390    19.3790    61.1480 cc         1 M4I       0.373900
      7 C8           0.6730    19.0680    60.6170 c3         1 M4I      -0.076000
      8 C10          0.5940    19.4250    59.1300 c3         1 M4I      -0.081600
      9 C1           2.4420    15.5920    57.2390 c3         1 M4I       0.094300
     10 C2           2.8770    16.7270    59.3520 c          1 M4I       0.614700
     11 O1           1.9530    16.1650    59.9230 o          1 M4I      -0.589100
     12 C3           3.7720    17.6810    60.0720 ca         1 M4I      -0.120600
     13 N2           6.0260    18.2050    60.7670 nb         1 M4I      -0.645000
     14 N4           2.2450    20.3870    61.9630 nd         1 M4I      -0.507100
     15 C9          -0.4310    19.7750    61.3950 c3         1 M4I      -0.081600
     16 C11          3.2900    18.7470    60.8530 ca         1 M4I      -0.161900
     17 H4           3.9160    17.0580    57.6410 hn         1 M4I       0.320500
     18 H7           3.9060    21.1780    62.8240 hn         1 M4I       0.383000
     19 H5           5.5570    16.6540    59.4980 h4         1 M4I       0.023100
     20 H6           6.3340    19.7780    62.0600 h4         1 M4I       0.027100
     21 H8           0.5220    17.9910    60.7130 hc         1 M4I       0.085700
     22 H13         -0.3720    19.1300    58.7170 hc         1 M4I       0.036367
     23 H14          0.7060    20.5010    58.9870 hc         1 M4I       0.036367
     24 H12          1.3680    18.9310    58.5410 hc         1 M4I       0.036367
     25 H1           2.8810    15.5940    56.2450 h1         1 M4I       0.042033
     26 H2           2.4920    14.5770    57.6340 h1         1 M4I       0.042033
     27 H3           1.3930    15.8760    57.1540 h1         1 M4I       0.042033
     28 H11         -0.4060    19.5240    62.4560 hc         1 M4I       0.036367
     29 H9          -0.3550    20.8590    61.3050 hc         1 M4I       0.036367
     30 H10         -1.4040    19.4760    61.0050 hc         1 M4I       0.036367
@<TRIPOS>BOND
     1     1     9 1   
     2     1    10 1   
     3     1    17 1   
     4     2     5 1   
     5     2    14 1   
     6     2    18 1   
     7     3    12 ar  
     8     3    13 ar  
     9     3    19 1   
    10     4     5 ar  
    11     4    13 ar  
    12     4    20 1   
    13     5    16 ar  
    14     6     7 1   
    15     6    14 2   
    16     6    16 1   
    17     7     8 1   
    18     7    15 1   
    19     7    21 1   
    20     8    22 1   
    21     8    23 1   
    22     8    24 1   
    23     9    25 1   
    24     9    26 1   
    25     9    27 1   
    26    10    11 2   
    27    10    12 1   
    28    12    16 ar  
    29    15    28 1   
    30    15    29 1   
    31    15    30 1   
@<TRIPOS>SUBSTRUCTURE
     1 M4I         1 TEMP              0 ****  ****    0 ROOT
