@<TRIPOS>MOLECULE
M4I
   30    31     1     0     0
SMALL
No Charge or Current Charge


@<TRIPOS>ATOM
      1 N1           3.2570    16.3740    58.0520 ns         1 M4I      -0.504900
      2 N3           3.5840    20.4390    62.3270 na         1 M4I      -0.048400
      3 C4           5.1190    17.5260    59.9370 ca         1 M4I       0.307900
      4 C5           5.6070    19.2440    61.4300 ca         1 M4I       0.350900
      5 C6           4.2340    19.4910    61.5730 ca         1 M4I      -0.110200
      6 C7           2.0140    19.3880    61.2650 cc         1 M4I       0.373900
      7 C8           0.6400    19.1240    60.6660 c3         1 M4I      -0.076000
      8 C10          0.5860    19.5150    59.1690 c3         1 M4I      -0.081600
      9 C1           2.5430    15.4290    57.1890 c3         1 M4I       0.094300
     10 C2           2.8130    16.7770    59.2930 c          1 M4I       0.614700
     11 O1           1.7880    16.3200    59.7740 o          1 M4I      -0.589100
     12 C3           3.7170    17.7190    60.0400 ca         1 M4I      -0.120600
     13 N2           6.0480    18.2620    60.6060 nb         1 M4I      -0.645000
     14 N4           2.2030    20.3970    62.1390 nd         1 M4I      -0.507100
     15 C9          -0.5230    19.8020    61.4380 c3         1 M4I      -0.081600
     16 C11          3.2910    18.7710    60.8980 ca         1 M4I      -0.161900
     17 H4           4.1140    16.7910    57.7070 hn         1 M4I       0.320500
     18 H7           4.0170    21.1190    62.9530 hn         1 M4I       0.383000
     19 H5           5.5260    16.7300    59.3140 h4         1 M4I       0.023100
     20 H6           6.3560    19.8290    61.9630 h4         1 M4I       0.027100
     21 H8           0.4390    18.0540    60.7470 hc         1 M4I       0.085700
     22 H13         -0.3830    19.2450    58.7310 hc         1 M4I       0.036367
     23 H14          0.7270    20.5960    59.0480 hc         1 M4I       0.036367
     24 H12          1.3680    19.0080    58.5940 hc         1 M4I       0.036367
     25 H1           3.1010    15.2930    56.2530 h1         1 M4I       0.042033
     26 H2           2.4490    14.4610    57.6980 h1         1 M4I       0.042033
     27 H3           1.5430    15.8200    56.9600 h1         1 M4I       0.042033
     28 H11         -0.5160    19.5020    62.4930 hc         1 M4I       0.036367
     29 H9          -0.4480    20.8950    61.3880 hc         1 M4I       0.036367
     30 H10         -1.4910    19.5100    61.0130 hc         1 M4I       0.036367
@<TRIPOS>BOND
     1     1     9 1   
     2     1    10 1   
     3     1    17 1   
     4     2     5 1   
     5     2    14 1   
     6     2    18 1   
     7     3    12 ar  
     8     3    13 ar  
     9     3    19 1   
    10     4     5 ar  
    11     4    13 ar  
    12     4    20 1   
    13     5    16 ar  
    14     6     7 1   
    15     6    14 2   
    16     6    16 1   
    17     7     8 1   
    18     7    15 1   
    19     7    21 1   
    20     8    22 1   
    21     8    23 1   
    22     8    24 1   
    23     9    25 1   
    24     9    26 1   
    25     9    27 1   
    26    10    11 2   
    27    10    12 1   
    28    12    16 ar  
    29    15    28 1   
    30    15    29 1   
    31    15    30 1   
@<TRIPOS>SUBSTRUCTURE
     1 M4I         1 TEMP              0 ****  ****    0 ROOT
