@<TRIPOS>MOLECULE
M4J
   53    57     1     0     0
SMALL
bcc


@<TRIPOS>ATOM
      1 C1           4.6120    -5.1600    -0.7130 ca         1 M4J      -0.125000
      2 C2           3.3680    -4.5780    -0.7710 ca         1 M4J      -0.115000
      3 C3           3.0430    -3.4710     0.0340 ca         1 M4J      -0.022000
      4 C4           4.0330    -2.9680     0.9080 ca         1 M4J      -0.032000
      5 C5           5.3000    -3.5770     0.9530 ca         1 M4J      -0.116000
      6 C6           3.7430    -1.8410     1.7400 ca         1 M4J      -0.110000
      7 O            2.9450     4.1230    -1.7070 o          1 M4J      -0.544100
      8 C23          2.5720     4.8450    -0.8060 c          1 M4J       0.671100
      9 C24          3.2810     6.1330    -0.4240 c3         1 M4J       0.070800
     10 N3           4.4440     6.3600    -1.2480 n8         1 M4J      -0.860800
     11 C20          0.5700     3.5460    -0.0890 ca         1 M4J       0.091600
     12 C21         -0.4140     3.5080     0.9040 ca         1 M4J      -0.168500
     13 C22         -1.3520     2.4950     0.9390 ca         1 M4J      -0.080000
     14 C19          0.5830     2.5440    -1.0610 ca         1 M4J      -0.168500
     15 C18         -0.3680     1.5380    -1.0300 ca         1 M4J      -0.080000
     16 C17         -1.3270     1.5040    -0.0310 ca         1 M4J      -0.038200
     17 N1          -2.2890     0.4640     0.0010 na         1 M4J       0.199300
     18 N           -3.5780     0.7730     0.0130 nc         1 M4J      -0.454800
     19 C16         -4.2080    -0.3810    -0.0280 cd         1 M4J       0.193600
     20 C25         -5.6920    -0.4370    -0.0170 c3         1 M4J       0.658600
     21 F1          -6.1640    -1.0960    -1.0840 f          1 M4J      -0.229300
     22 F           -6.1520    -1.0860     1.0620 f          1 M4J      -0.229300
     23 F2          -6.2390     0.7770    -0.0180 f          1 M4J      -0.229300
     24 C14         -2.0740    -0.8800    -0.0420 cc         1 M4J      -0.030300
     25 C15         -3.3210    -1.4630    -0.0710 cd         1 M4J      -0.251300
     26 C12         -0.7580    -1.5180    -0.0150 ca         1 M4J      -0.033000
     27 C13          0.2510    -1.0820     0.8160 ca         1 M4J      -0.091000
     28 C8           1.5020    -1.7180     0.8370 ca         1 M4J      -0.037000
     29 C9           1.7440    -2.8320     0.0020 ca         1 M4J      -0.007000
     30 C10          0.6960    -3.2680    -0.8280 ca         1 M4J      -0.118000
     31 C11         -0.5200    -2.6320    -0.8400 ca         1 M4J      -0.107000
     32 C7           2.5330    -1.2420     1.7060 ca         1 M4J      -0.114000
     33 C            5.5910    -4.6570     0.1560 ca         1 M4J      -0.121000
     34 H1           4.8360    -6.0110    -1.3420 ha         1 M4J       0.132000
     35 H2           2.6390    -4.9930    -1.4540 ha         1 M4J       0.131000
     36 H3           6.0470    -3.1790     1.6290 ha         1 M4J       0.132000
     37 H4           4.5180    -1.4720     2.4000 ha         1 M4J       0.134000
     38 H5           2.5350     6.9410    -0.4430 h1         1 M4J       0.045200
     39 H6           3.5960     6.0470     0.6200 h1         1 M4J       0.045200
     40 H7           4.1580     6.5890    -2.1910 hn         1 M4J       0.350300
     41 H8           4.9320     7.1750    -0.9000 hn         1 M4J       0.350300
     42 H10          1.2860     5.2860     0.6840 hn         1 M4J       0.315500
     43 H11         -0.4420     4.2770     1.6670 ha         1 M4J       0.154500
     44 H12         -2.0950     2.4760     1.7240 ha         1 M4J       0.153500
     45 H13          1.3150     2.5410    -1.8500 ha         1 M4J       0.154500
     46 H14         -0.3550     0.7800    -1.8030 ha         1 M4J       0.153500
     47 H15         -3.5470    -2.5170    -0.0840 ha         1 M4J       0.179000
     48 H16          0.0960    -0.2430     1.4840 ha         1 M4J       0.139000
     49 H17          0.8310    -4.1160    -1.4860 ha         1 M4J       0.136000
     50 H18         -1.2990    -2.9840    -1.5040 ha         1 M4J       0.139000
     51 H19          2.3260    -0.3870     2.3380 ha         1 M4J       0.133000
     52 H20          6.5690    -5.1190     0.1960 ha         1 M4J       0.134000
     53 N2           1.4700     4.6080    -0.0410 ns         1 M4J      -0.482100
@<TRIPOS>BOND
     1     1     2 ar  
     2     1    33 ar  
     3     1    34 1   
     4     2     3 ar  
     5     2    35 1   
     6     3     4 ar  
     7     3    29 ar  
     8     4     5 ar  
     9     4     6 ar  
    10     5    33 ar  
    11     5    36 1   
    12     6    32 ar  
    13     6    37 1   
    14     7     8 2   
    15     8     9 1   
    16     8    53 1   
    17     9    10 1   
    18     9    38 1   
    19     9    39 1   
    20    10    40 1   
    21    10    41 1   
    22    11    12 ar  
    23    11    14 ar  
    24    11    53 1   
    25    12    13 ar  
    26    12    43 1   
    27    13    16 ar  
    28    13    44 1   
    29    14    15 ar  
    30    14    45 1   
    31    15    16 ar  
    32    15    46 1   
    33    16    17 1   
    34    17    18 1   
    35    17    24 1   
    36    18    19 2   
    37    19    20 1   
    38    19    25 1   
    39    20    21 1   
    40    20    22 1   
    41    20    23 1   
    42    24    25 2   
    43    24    26 1   
    44    25    47 1   
    45    26    27 ar  
    46    26    31 ar  
    47    27    28 ar  
    48    27    48 1   
    49    28    29 ar  
    50    28    32 ar  
    51    29    30 ar  
    52    30    31 ar  
    53    30    49 1   
    54    31    50 1   
    55    32    51 1   
    56    33    52 1   
    57    42    53 1   
@<TRIPOS>SUBSTRUCTURE
     1 M4J         1 TEMP              0 ****  ****    0 ROOT
