@<TRIPOS>MOLECULE
M4J
   53    57     1     0     0
SMALL
No Charge or Current Charge


@<TRIPOS>ATOM
      1 C1           4.5260    -5.4600    -0.5890 ca         1 M4J      -0.107000
      2 C2           3.2680    -4.8370    -0.6580 ca         1 M4J      -0.097000
      3 C3           3.0160    -3.6220     0.0310 ca         1 M4J      -0.022000
      4 C4           4.0750    -3.0570     0.7910 ca         1 M4J      -0.032000
      5 C5           5.3320    -3.6880     0.8550 ca         1 M4J      -0.098000
      6 C6           3.8860    -1.8560     1.4950 ca         1 M4J      -0.092000
      7 O            2.8010     4.5010    -1.8720 o          1 M4J      -0.544100
      8 C23          2.4950     5.0990    -0.8430 c          1 M4J       0.604100
      9 C24          3.2530     6.3850    -0.3650 c3         1 M4J       0.070800
     10 N3           4.6150     6.6600    -0.9530 n8         1 M4J      -0.971200
     11 C20          0.5280     3.6460    -0.0390 ca         1 M4J      -0.001000
     12 C21         -0.4340     3.5800     0.9870 ca         1 M4J      -0.150500
     13 C22         -1.3850     2.5450     1.0180 ca         1 M4J      -0.062000
     14 C19          0.5210     2.6530    -1.0420 ca         1 M4J      -0.150500
     15 C18         -0.4300     1.6170    -1.0130 ca         1 M4J      -0.062000
     16 C17         -1.3860     1.5530     0.0190 ca         1 M4J      -0.038200
     17 N1          -2.3210     0.5170     0.0580 na         1 M4J       0.250000
     18 N           -3.6660     0.8130     0.0450 nc         1 M4J      -0.454800
     19 C16         -4.2110    -0.3960    -0.0500 cd         1 M4J       0.128300
     20 C25         -5.7210    -0.5820    -0.0720 c3         1 M4J       0.294700
     21 F1          -6.0750    -1.8840    -0.1800 f          1 M4J      -0.108000
     22 F           -6.3050    -0.1110     1.0550 f          1 M4J      -0.108000
     23 F2          -6.2940     0.0650    -1.1150 f          1 M4J      -0.108000
     24 C14         -2.0120    -0.8310    -0.0730 cc         1 M4J      -0.081000
     25 C15         -3.2370    -1.4310    -0.1230 cd         1 M4J      -0.168000
     26 C12         -0.7330    -1.5480    -0.0460 ca         1 M4J      -0.033000
     27 C13          0.3590    -1.0560     0.6900 ca         1 M4J      -0.073000
     28 C8           1.5880    -1.7420     0.7080 ca         1 M4J      -0.037000
     29 C9           1.7550    -2.9530    -0.0100 ca         1 M4J      -0.007000
     30 C10          0.6440    -3.4450    -0.7400 ca         1 M4J      -0.100000
     31 C11         -0.5780    -2.7520    -0.7540 ca         1 M4J      -0.089000
     32 C7           2.6500    -1.2030     1.4540 ca         1 M4J      -0.096000
     33 C            5.5580    -4.8880     0.1660 ca         1 M4J      -0.103000
     34 H1           4.7000    -6.3910    -1.1240 ha         1 M4J       0.114000
     35 H2           2.5100    -5.3260    -1.2570 ha         1 M4J       0.113000
     36 H3           6.1370    -3.2490     1.4390 ha         1 M4J       0.114000
     37 H4           4.6980    -1.4260     2.0760 ha         1 M4J       0.116000
     38 H5           2.5990     7.2410    -0.5790 h1         1 M4J       0.045200
     39 H6           3.3600     6.3200     0.7270 h1         1 M4J       0.045200
     40 H7           4.5330     6.7560    -1.9740 hn         1 M4J       0.405500
     41 H8           4.9440     7.5850    -0.6470 hn         1 M4J       0.405500
     42 H10          1.3380     5.3300     0.8020 hn         1 M4J       0.149000
     43 H11         -0.4470     4.3360     1.7700 ha         1 M4J       0.136500
     44 H12         -2.1180     2.5110     1.8210 ha         1 M4J       0.135500
     45 H13          1.2420     2.6590    -1.8530 ha         1 M4J       0.136500
     46 H14         -0.4220     0.8600    -1.7950 ha         1 M4J       0.135500
     47 H15         -3.4350    -2.4960    -0.1890 ha         1 M4J       0.161000
     48 H16          0.2550    -0.1380     1.2630 ha         1 M4J       0.121000
     49 H17          0.6940    -4.3640    -1.3120 ha         1 M4J       0.118000
     50 H18         -1.4060    -3.1530    -1.3340 ha         1 M4J       0.121000
     51 H19          2.5190    -0.2730     2.0040 ha         1 M4J       0.115000
     52 H20          6.5310    -5.3720     0.2180 ha         1 M4J       0.116000
     53 N2           1.4570     4.7220     0.0020 ns         1 M4J      -0.156000
@<TRIPOS>BOND
     1     1     2 ar  
     2     1    33 ar  
     3     1    34 1   
     4     2     3 ar  
     5     2    35 1   
     6     3     4 ar  
     7     3    29 ar  
     8     4     5 ar  
     9     4     6 ar  
    10     5    33 ar  
    11     5    36 1   
    12     6    32 ar  
    13     6    37 1   
    14     7     8 2   
    15     8     9 1   
    16     8    53 1   
    17     9    10 1   
    18     9    38 1   
    19     9    39 1   
    20    10    40 1   
    21    10    41 1   
    22    11    12 ar  
    23    11    14 ar  
    24    11    53 1   
    25    12    13 ar  
    26    12    43 1   
    27    13    16 ar  
    28    13    44 1   
    29    14    15 ar  
    30    14    45 1   
    31    15    16 ar  
    32    15    46 1   
    33    16    17 1   
    34    17    18 1   
    35    17    24 1   
    36    18    19 2   
    37    19    20 1   
    38    19    25 1   
    39    20    21 1   
    40    20    22 1   
    41    20    23 1   
    42    24    25 2   
    43    24    26 1   
    44    25    47 1   
    45    26    27 ar  
    46    26    31 ar  
    47    27    28 ar  
    48    27    48 1   
    49    28    29 ar  
    50    28    32 ar  
    51    29    30 ar  
    52    30    31 ar  
    53    30    49 1   
    54    31    50 1   
    55    32    51 1   
    56    33    52 1   
    57    42    53 1   
@<TRIPOS>SUBSTRUCTURE
     1 M4J         1 TEMP              0 ****  ****    0 ROOT
