@<TRIPOS>MOLECULE
M4K
   37    39     1     0     0
SMALL
No Charge or Current Charge


@<TRIPOS>ATOM
      1 CAC         23.7300   -23.5360    27.5360 ca         1 M4K      -0.102000
      2 CAD         24.8950   -23.9590    26.8740 ca         1 M4K      -0.118000
      3 CAE         22.8370   -24.4860    28.0580 ca         1 M4K      -0.118000
      4 CAF         25.1620   -25.3310    26.7240 ca         1 M4K      -0.104500
      5 CAG         23.1080   -25.8580    27.9160 ca         1 M4K      -0.104500
      6 CAH         23.3110   -26.1210    23.7910 c6         1 M4K      -0.279700
      7 CAI         22.3390   -30.8170    27.0390 cx         1 M4K      -0.118900
      8 CAJ         23.2340   -30.4940    28.2140 cx         1 M4K      -0.118900
      9 CAL         23.0750   -28.3130    25.1350 c3         1 M4K       0.132500
     10 CAO         24.2660   -26.2900    27.2390 ca         1 M4K      -0.103300
     11 CAP         22.5350   -26.9140    24.8010 c2         1 M4K       0.507300
     12 CAQ         22.9600   -24.6740    23.9610 c          1 M4K       0.585000
     13 CAR         20.7880   -25.3230    24.8560 c          1 M4K       0.699400
     14 CAS         23.5880   -29.9970    26.8350 cx         1 M4K       0.100500
     15 NAM         21.3430   -26.5600    25.1880 ne         1 M4K      -0.610100
     16 NAN         21.6700   -24.4520    24.2940 ns         1 M4K      -0.495500
     17 NAT         23.4240   -28.5880    26.5720 n3         1 M4K      -0.700600
     18 OAA         23.7740   -23.7710    23.8710 o          1 M4K      -0.518000
     19 OAB         19.6370   -25.0030    25.0780 o          1 M4K      -0.485000
     20 H1          23.5220   -22.4740    27.6460 ha         1 M4K       0.120000
     21 H2          25.5880   -23.2240    26.4710 ha         1 M4K       0.118000
     22 H3          21.9360   -24.1610    28.5730 ha         1 M4K       0.118000
     23 H4          26.0660   -25.6470    26.2070 ha         1 M4K       0.121500
     24 H5          22.4130   -26.5900    28.3230 ha         1 M4K       0.121500
     25 H7          24.3970   -26.2630    23.8500 hc         1 M4K       0.107200
     26 H8          21.3790   -30.3100    26.9780 hc         1 M4K       0.080950
     27 H9          22.3410   -31.8370    26.6630 hc         1 M4K       0.080950
     28 H10         22.8740   -29.7690    28.9400 hc         1 M4K       0.080950
     29 H11         23.8380   -31.2960    28.6300 hc         1 M4K       0.080950
     30 H14         22.3030   -29.0240    24.8130 h1         1 M4K       0.055700
     31 H15         23.9500   -28.5170    24.5030 h1         1 M4K       0.055700
     32 H16         24.4270   -30.4780    26.3290 h1         1 M4K       0.056700
     33 H17         21.3550   -23.4960    24.2400 hn         1 M4K       0.338500
     34 CAK         24.5620   -27.7810    27.0900 c3         1 M4K       0.221100
     35 H6          22.9470   -26.4370    22.8060 hc         1 M4K       0.107200
     36 H12         24.8460   -28.1450    28.0870 h1         1 M4K       0.044700
     37 H13         25.4420   -27.9200    26.4470 h1         1 M4K       0.044700
@<TRIPOS>BOND
     1     1     2 ar  
     2     1     3 ar  
     3     1    20 1   
     4     2     4 ar  
     5     2    21 1   
     6     3     5 ar  
     7     3    22 1   
     8     4    10 ar  
     9     4    23 1   
    10     5    10 ar  
    11     5    24 1   
    12     6    11 1   
    13     6    12 1   
    14     6    25 1   
    15     6    35 1   
    16     7     8 1   
    17     7    14 1   
    18     7    26 1   
    19     7    27 1   
    20     8    14 1   
    21     8    28 1   
    22     8    29 1   
    23     9    11 1   
    24     9    17 1   
    25     9    30 1   
    26     9    31 1   
    27    10    34 1   
    28    11    15 2   
    29    12    16 1   
    30    12    18 2   
    31    13    15 1   
    32    13    16 1   
    33    13    19 2   
    34    14    17 1   
    35    14    32 1   
    36    16    33 1   
    37    17    34 1   
    38    34    36 1   
    39    34    37 1   
@<TRIPOS>SUBSTRUCTURE
     1 M4K         1 TEMP              0 ****  ****    0 ROOT
