@<TRIPOS>MOLECULE
M4K
   37    39     1     0     0
SMALL
abcg2


@<TRIPOS>ATOM
      1 CAC         24.2600   -23.5510    27.1060 ca         1 M4K      -0.102000
      2 CAD         25.4360   -24.1980    26.7460 ca         1 M4K      -0.118000
      3 CAE         23.1860   -24.2940    27.5920 ca         1 M4K      -0.118000
      4 CAF         25.5300   -25.5830    26.8550 ca         1 M4K      -0.104500
      5 CAG         23.2890   -25.6740    27.7080 ca         1 M4K      -0.104500
      6 CAH         23.1540   -25.7730    24.1800 c6         1 M4K      -0.279700
      7 CAI         22.2420   -30.6860    26.6440 cx         1 M4K      -0.118900
      8 CAJ         22.8520   -30.4930    28.0130 cx         1 M4K      -0.118900
      9 CAL         23.4840   -28.1010    25.2160 c3         1 M4K       0.132500
     10 CAO         24.4580   -26.3370    27.3280 ca         1 M4K      -0.103300
     11 CAP         22.5760   -26.9170    24.9470 c2         1 M4K       0.507300
     12 CAQ         22.2670   -24.5680    24.0720 c          1 M4K       0.585000
     13 CAR         20.4920   -25.9120    25.1210 c          1 M4K       0.699400
     14 CAS         23.5260   -29.9310    26.7980 cx         1 M4K       0.100500
     15 NAM         21.3590   -26.9850    25.3410 ne         1 M4K      -0.610100
     16 NAN         20.9940   -24.7500    24.5460 ns         1 M4K      -0.495500
     17 NAT         23.4930   -28.5040    26.6190 n3         1 M4K      -0.700600
     18 OAA         22.6290   -23.5090    23.5960 o          1 M4K      -0.518000
     19 OAB         19.3210   -25.9710    25.4440 o          1 M4K      -0.485000
     20 H1          24.1770   -22.4760    27.0080 ha         1 M4K       0.120000
     21 H2          26.2760   -23.6290    26.3670 ha         1 M4K       0.118000
     22 H3          22.2660   -23.7970    27.8750 ha         1 M4K       0.118000
     23 H4          26.4400   -26.0870    26.5500 ha         1 M4K       0.121500
     24 H5          22.4470   -26.2520    28.0690 ha         1 M4K       0.121500
     25 H7          24.1080   -25.4730    24.6180 hc         1 M4K       0.107200
     26 H8          21.3610   -30.1070    26.4060 hc         1 M4K       0.080950
     27 H9          22.2820   -31.6710    26.1980 hc         1 M4K       0.080950
     28 H10         22.3710   -29.7830    28.6730 hc         1 M4K       0.080950
     29 H11         23.3060   -31.3440    28.5020 hc         1 M4K       0.080950
     30 H14         23.0850   -28.9250    24.6200 h1         1 M4K       0.055700
     31 H15         24.4900   -27.8860    24.8380 h1         1 M4K       0.055700
     32 H16         24.4360   -30.4350    26.4670 h1         1 M4K       0.056700
     33 H17         20.3500   -23.9710    24.4690 hn         1 M4K       0.338500
     34 CAK         24.5450   -27.8400    27.3960 c3         1 M4K       0.221100
     35 H6          23.3940   -26.1170    23.1670 hc         1 M4K       0.107200
     36 H12         24.4340   -28.1740    28.4300 h1         1 M4K       0.044700
     37 H13         25.5440   -28.1550    27.0560 h1         1 M4K       0.044700
@<TRIPOS>BOND
     1     1     2 ar  
     2     1     3 ar  
     3     1    20 1   
     4     2     4 ar  
     5     2    21 1   
     6     3     5 ar  
     7     3    22 1   
     8     4    10 ar  
     9     4    23 1   
    10     5    10 ar  
    11     5    24 1   
    12     6    11 1   
    13     6    12 1   
    14     6    25 1   
    15     6    35 1   
    16     7     8 1   
    17     7    14 1   
    18     7    26 1   
    19     7    27 1   
    20     8    14 1   
    21     8    28 1   
    22     8    29 1   
    23     9    11 1   
    24     9    17 1   
    25     9    30 1   
    26     9    31 1   
    27    10    34 1   
    28    11    15 2   
    29    12    16 1   
    30    12    18 2   
    31    13    15 1   
    32    13    16 1   
    33    13    19 2   
    34    14    17 1   
    35    14    32 1   
    36    16    33 1   
    37    17    34 1   
    38    34    36 1   
    39    34    37 1   
@<TRIPOS>SUBSTRUCTURE
     1 M4K         1 TEMP              0 ****  ****    0 ROOT
