@<TRIPOS>MOLECULE
M4L
   33    34     1     0     0
SMALL
No Charge or Current Charge


@<TRIPOS>ATOM
      1 N1           7.9800    -0.4940    20.7790 ns         1 M4L      -0.140000
      2 C4           7.6530    -0.3720    18.3650 ca         1 M4L       0.353900
      3 C5           7.2210    -0.0400    19.6620 ca         1 M4L      -0.132000
      4 C6           8.3880     0.1740    21.9270 c          1 M4L       0.614100
      5 C7           9.1390    -0.7190    22.9680 c3         1 M4L       0.136600
      6 C8          10.6510    -0.5110    22.8850 ca         1 M4L      -0.130300
      7 C10         12.7230     0.3580    23.8480 ca         1 M4L      -0.109000
      8 C13         11.3800    -0.9710    21.7670 ca         1 M4L      -0.067000
      9 N            7.0080     0.0130    17.2410 nb         1 M4L      -0.679000
     10 C1           6.0300     0.7030    19.7990 ca         1 M4L       0.187100
     11 C11         13.4420    -0.1030    22.7320 ca         1 M4L      -0.072000
     12 O1           8.2160     1.3790    22.0990 o          1 M4L      -0.581100
     13 C2           5.3570     1.1030    18.6290 ca         1 M4L      -0.249000
     14 C9          11.3340     0.1560    23.9240 ca         1 M4L      -0.069000
     15 C12         12.7690    -0.7670    21.6940 ca         1 M4L      -0.011900
     16 O            5.5300     0.9690    21.0590 os         1 M4L      -0.325100
     17 O2           8.8460    -2.1330    22.8340 oh         1 M4L      -0.672000
     18 Br          13.7440    -1.3950    20.1740 br         1 M4L      -0.106100
     19 C3           5.8820     0.7430    17.3810 ca         1 M4L       0.364900
     20 H1           8.2410    -1.4730    20.7550 hn         1 M4L       0.179000
     21 H3           8.7920    -0.3720    23.9500 h1         1 M4L       0.071700
     22 H4          13.2420     0.8730    24.6530 ha         1 M4L       0.122000
     23 H5          10.8740    -1.4890    20.9560 ha         1 M4L       0.134000
     24 H6          14.5170     0.0540    22.6730 ha         1 M4L       0.132000
     25 H7           4.4360     1.6750    18.6590 ha         1 M4L       0.127000
     26 H8          10.7890     0.5210    24.7930 ha         1 M4L       0.123000
     27 H9           4.1180     1.8260    22.3380 h1         1 M4L       0.047367
     28 H10          4.4170     2.7330    20.8410 h1         1 M4L       0.047367
     29 H11          3.4650     1.2240    20.8010 h1         1 M4L       0.047367
     30 H12          9.3830    -2.6020    23.5120 ho         1 M4L       0.462000
     31 H13          5.3780     1.0390    16.4610 h4         1 M4L       0.019100
     32 H2           8.5600    -0.9580    18.2180 h4         1 M4L       0.024100
     33 C            4.3240     1.7250    21.2660 c3         1 M4L       0.148900
@<TRIPOS>BOND
     1     1     3 1   
     2     1     4 1   
     3     1    20 1   
     4     2     3 ar  
     5     2     9 ar  
     6     2    32 1   
     7     3    10 ar  
     8     4     5 1   
     9     4    12 2   
    10     5     6 1   
    11     5    17 1   
    12     5    21 1   
    13     6     8 ar  
    14     6    14 ar  
    15     7    11 ar  
    16     7    14 ar  
    17     7    22 1   
    18     8    15 ar  
    19     8    23 1   
    20     9    19 ar  
    21    10    13 ar  
    22    10    16 1   
    23    11    15 ar  
    24    11    24 1   
    25    13    19 ar  
    26    13    25 1   
    27    14    26 1   
    28    15    18 1   
    29    16    33 1   
    30    17    30 1   
    31    19    31 1   
    32    27    33 1   
    33    28    33 1   
    34    29    33 1   
@<TRIPOS>SUBSTRUCTURE
     1 M4L         1 TEMP              0 ****  ****    0 ROOT
