@<TRIPOS>MOLECULE
M4L
   33    34     1     0     0
SMALL
abcg2


@<TRIPOS>ATOM
      1 N1           7.8580    -0.6400    20.8290 ns         1 M4L      -0.140000
      2 C4           7.6840    -0.2860    18.4350 ca         1 M4L       0.353900
      3 C5           7.1940    -0.0750    19.7130 ca         1 M4L      -0.132000
      4 C6           8.4480     0.0880    21.7990 c          1 M4L       0.614100
      5 C7           9.1370    -0.7280    22.8990 c3         1 M4L       0.136600
      6 C8          10.6330    -0.5000    22.8400 ca         1 M4L      -0.130300
      7 C10         12.6320     0.5390    23.7050 ca         1 M4L      -0.109000
      8 C13         11.3850    -1.1000    21.8280 ca         1 M4L      -0.067000
      9 N            7.1090     0.1840    17.3240 nb         1 M4L      -0.679000
     10 C1           6.0150     0.6740    19.8680 ca         1 M4L       0.187100
     11 C11         13.3910    -0.0540    22.7040 ca         1 M4L      -0.072000
     12 O1           8.4770     1.3120    21.8300 o          1 M4L      -0.581100
     13 C2           5.4210     1.1880    18.7140 ca         1 M4L      -0.249000
     14 C9          11.2600     0.3170    23.7750 ca         1 M4L      -0.069000
     15 C12         12.7490    -0.8690    21.7790 ca         1 M4L      -0.011900
     16 O            5.5350     0.8240    21.1100 os         1 M4L      -0.325100
     17 O2           8.7850    -2.0990    22.7530 oh         1 M4L      -0.672000
     18 BR          13.7860    -1.6960    20.3940 br         1 M4L      -0.106100
     19 C3           6.0020     0.9130    17.4840 ca         1 M4L       0.364900
     20 H1           7.9580    -1.6440    20.8840 hn         1 M4L       0.179000
     21 H3           8.7570    -0.3320    23.8450 h1         1 M4L       0.071700
     22 H4          13.1170     1.1720    24.4370 ha         1 M4L       0.122000
     23 H5          10.9050    -1.7370    21.0980 ha         1 M4L       0.134000
     24 H6          14.4570     0.1110    22.6460 ha         1 M4L       0.132000
     25 H7           4.5180     1.7760    18.7590 ha         1 M4L       0.127000
     26 H8          10.6750     0.7750    24.5620 ha         1 M4L       0.123000
     27 H9           4.1510     1.5870    22.3630 h1         1 M4L       0.047367
     28 H10          4.4890     2.6210    20.9510 h1         1 M4L       0.047367
     29 H11          3.5030     1.1430    20.7630 h1         1 M4L       0.047367
     30 H12          9.3230    -2.6230    23.3600 ho         1 M4L       0.462000
     31 H13          5.5430     1.3020    16.5820 h4         1 M4L       0.019100
     32 H2           8.5910    -0.8700    18.3170 h4         1 M4L       0.024100
     33 C            4.3420     1.5960    21.2940 c3         1 M4L       0.148900
@<TRIPOS>BOND
     1     1     3 1   
     2     1     4 1   
     3     1    20 1   
     4     2     3 ar  
     5     2     9 ar  
     6     2    32 1   
     7     3    10 ar  
     8     4     5 1   
     9     4    12 2   
    10     5     6 1   
    11     5    17 1   
    12     5    21 1   
    13     6     8 ar  
    14     6    14 ar  
    15     7    11 ar  
    16     7    14 ar  
    17     7    22 1   
    18     8    15 ar  
    19     8    23 1   
    20     9    19 ar  
    21    10    13 ar  
    22    10    16 1   
    23    11    15 ar  
    24    11    24 1   
    25    13    19 ar  
    26    13    25 1   
    27    14    26 1   
    28    15    18 1   
    29    16    33 1   
    30    17    30 1   
    31    19    31 1   
    32    27    33 1   
    33    28    33 1   
    34    29    33 1   
@<TRIPOS>SUBSTRUCTURE
     1 M4L         1 TEMP              0 ****  ****    0 ROOT
