@<TRIPOS>MOLECULE
M4M
   46    49     1     0     0
SMALL
abcg2


@<TRIPOS>ATOM
      1 C1           1.3470    -3.8740     0.5560 ca         1 M4M      -0.128600
      2 N1           4.1570     0.2180    -0.8700 nv         1 M4M      -0.761000
      3 O1           4.4080    -2.3570    -0.5520 o          1 M4M      -0.593100
      4 S1           2.5350     2.7940    -0.8750 s6         1 M4M       1.256100
      5 C2           0.8120    -5.1390     0.7930 ca         1 M4M      -0.072000
      6 N2          -1.0700    -0.2840     0.9990 nu         1 M4M      -0.820000
      7 O2           2.6450     2.6580    -2.3330 o          1 M4M      -0.683533
      8 S2          -5.8190     2.8690    -0.5970 sy         1 M4M       1.133600
      9 C3           1.5630    -6.2690     0.5230 ca         1 M4M      -0.115000
     10 N3          -5.6190     4.2560     0.2840 n8         1 M4M      -0.998100
     11 O3           3.8320     3.0370    -0.2120 o          1 M4M      -0.683533
     12 C4           2.8580    -6.1430     0.0310 ca         1 M4M      -0.108000
     13 O4           1.4770     3.7120    -0.4360 o          1 M4M      -0.683533
     14 C5           3.3980    -4.8890    -0.1930 ca         1 M4M      -0.076000
     15 C6           2.6430    -3.7460     0.0620 ca         1 M4M      -0.109600
     16 O6          -7.0070     2.2290    -0.0490 o          1 M4M      -0.563000
     17 C7           3.2330    -2.4130    -0.1950 c          1 M4M       0.606300
     18 O7          -0.5150    -2.8030     1.4610 o          1 M4M      -0.578100
     19 C8           2.3890    -1.2300    -0.0520 ca         1 M4M      -0.280600
     20 O8          -5.7650     3.1030    -2.0350 o          1 M4M      -0.563000
     21 C9           2.9050     0.0360    -0.4230 ca         1 M4M       0.463000
     22 C10          2.0230     1.1560    -0.3220 ca         1 M4M      -0.257500
     23 C11          0.7540     1.0110     0.1430 ca         1 M4M      -0.016000
     24 C12          0.2220    -0.2400     0.5160 ca         1 M4M       0.270000
     25 C13         -2.1360     0.4860     0.5910 ca         1 M4M       0.391000
     26 C14         -3.2520     0.5600     1.4390 ca         1 M4M      -0.195000
     27 C15         -4.3670     1.2820     1.0770 ca         1 M4M       0.027500
     28 C16         -4.3880     1.9520    -0.1420 ca         1 M4M      -0.333500
     29 C17         -3.3000     1.8810    -1.0000 ca         1 M4M       0.027500
     30 C18         -2.1830     1.1500    -0.6400 ca         1 M4M      -0.195000
     31 C19          1.0490    -1.3610     0.4290 ca         1 M4M      -0.128600
     32 C20          0.5440    -2.6750     0.8590 c          1 M4M       0.602300
     33 HN1          4.5450     1.1470    -0.8790 hn         1 M4M       0.357500
     34 HN1A         4.7880    -0.5660    -0.8420 hn         1 M4M       0.357500
     35 H2          -0.1920    -5.2370     1.1810 ha         1 M4M       0.131000
     36 HN2         -1.2870    -1.0830     1.5780 hn         1 M4M       0.364000
     37 H3           1.1420    -7.2500     0.6990 ha         1 M4M       0.109000
     38 HN3         -4.8810     4.8470    -0.0840 hn         1 M4M       0.466500
     39 HN3A        -6.4870     4.7820     0.3420 hn         1 M4M       0.466500
     40 H4           3.4460    -7.0270    -0.1760 ha         1 M4M       0.109000
     41 H5           4.4070    -4.7960    -0.5710 ha         1 M4M       0.135000
     42 H11          0.1420     1.8950     0.2540 ha         1 M4M       0.154000
     43 H14         -3.2350     0.0440     2.3910 ha         1 M4M       0.129000
     44 H15         -5.2130     1.3250     1.7510 ha         1 M4M       0.129000
     45 H17         -3.3180     2.3740    -1.9620 ha         1 M4M       0.129000
     46 H18         -1.3650     1.0750    -1.3430 ha         1 M4M       0.129000
@<TRIPOS>BOND
     1     1     5 ar  
     2     1    15 ar  
     3     1    32 1   
     4     2    21 1   
     5     2    33 1   
     6     2    34 1   
     7     3    17 2   
     8     4     7 1   
     9     4    11 1   
    10     4    13 1   
    11     4    22 1   
    12     5     9 ar  
    13     5    35 1   
    14     6    24 1   
    15     6    25 1   
    16     6    36 1   
    17     8    10 1   
    18     8    16 2   
    19     8    20 2   
    20     8    28 1   
    21     9    12 ar  
    22     9    37 1   
    23    10    38 1   
    24    10    39 1   
    25    12    14 ar  
    26    12    40 1   
    27    14    15 ar  
    28    14    41 1   
    29    15    17 1   
    30    17    19 1   
    31    18    32 2   
    32    19    21 ar  
    33    19    31 ar  
    34    21    22 ar  
    35    22    23 ar  
    36    23    24 ar  
    37    23    42 1   
    38    24    31 ar  
    39    25    26 ar  
    40    25    30 ar  
    41    26    27 ar  
    42    26    43 1   
    43    27    28 ar  
    44    27    44 1   
    45    28    29 ar  
    46    29    30 ar  
    47    29    45 1   
    48    30    46 1   
    49    31    32 1   
@<TRIPOS>SUBSTRUCTURE
     1 M4M         1 TEMP              0 ****  ****    0 ROOT
