@<TRIPOS>MOLECULE
M4M
   46    49     1     0     0
SMALL
No Charge or Current Charge


@<TRIPOS>ATOM
      1 C1           1.3600    -3.8610     0.6000 ca         1 M4M      -0.128600
      2 N1           4.2400     0.1880    -0.9040 nv         1 M4M      -0.761000
      3 O1           4.5810    -2.3450    -0.0310 o          1 M4M      -0.593100
      4 S1           2.7350     2.8630    -0.9750 s6         1 M4M       1.256100
      5 C2           0.7690    -5.1390     0.7370 ca         1 M4M      -0.072000
      6 N2          -1.0680    -0.2110     0.8360 nu         1 M4M      -0.820000
      7 O2           2.6920     2.6820    -2.4320 o          1 M4M      -0.683533
      8 S2          -6.0840     2.8250    -0.4450 sy         1 M4M       1.133600
      9 C3           1.4930    -6.2980     0.4180 ca         1 M4M      -0.115000
     10 N3          -5.7980     4.2520     0.2930 n8         1 M4M      -0.998100
     11 O3           4.0800     2.9410    -0.3860 o          1 M4M      -0.683533
     12 C4           2.8160    -6.1950    -0.0330 ca         1 M4M      -0.108000
     13 O4           1.7350     3.7840    -0.4170 o          1 M4M      -0.683533
     14 C5           3.4140    -4.9310    -0.1640 ca         1 M4M      -0.076000
     15 C6           2.6920    -3.7550     0.1460 ca         1 M4M      -0.109600
     16 O6          -7.2200     2.2440     0.2700 o          1 M4M      -0.563000
     17 C7           3.3570    -2.4090     0.0230 c          1 M4M       0.606300
     18 O7          -0.4190    -2.7280     1.6710 o          1 M4M      -0.578100
     19 C8           2.4710    -1.1730     0.0210 ca         1 M4M      -0.280600
     20 O8          -6.1260     3.1710    -1.8640 o          1 M4M      -0.563000
     21 C9           2.9650     0.0830    -0.4290 ca         1 M4M       0.463000
     22 C10          2.1380     1.2190    -0.3960 ca         1 M4M      -0.257500
     23 C11          0.8050     1.0910     0.0380 ca         1 M4M      -0.016000
     24 C12          0.2760    -0.1420     0.4460 ca         1 M4M       0.270000
     25 C13         -2.2140     0.5190     0.5190 ca         1 M4M       0.391000
     26 C14         -3.2940     0.4930     1.4100 ca         1 M4M      -0.195000
     27 C15         -4.4740     1.1990     1.1240 ca         1 M4M       0.027500
     28 C16         -4.5790     1.9290    -0.0760 ca         1 M4M      -0.333500
     29 C17         -3.5030     1.9410    -0.9860 ca         1 M4M       0.027500
     30 C18         -2.3280     1.2320    -0.6860 ca         1 M4M      -0.195000
     31 C19          1.1160    -1.2860     0.4760 ca         1 M4M      -0.128600
     32 C20          0.5810    -2.6260     0.9650 c          1 M4M       0.602300
     33 HN1          4.6520     1.1170    -0.9170 hn         1 M4M       0.357500
     34 HN1A         4.8610    -0.6000    -0.7420 hn         1 M4M       0.357500
     35 H2          -0.2560    -5.2360     1.0900 ha         1 M4M       0.131000
     36 HN2         -1.2630    -1.0220     1.4250 hn         1 M4M       0.364000
     37 H3           1.0280    -7.2760     0.5240 ha         1 M4M       0.109000
     38 HN3         -4.7860     4.2410     0.3930 hn         1 M4M       0.466500
     39 HN3A        -5.9610     4.8990    -0.4740 hn         1 M4M       0.466500
     40 H4           3.3800    -7.0920    -0.2770 ha         1 M4M       0.109000
     41 H5           4.4440    -4.8690    -0.5110 ha         1 M4M       0.135000
     42 H11          0.1610     1.9640     0.0630 ha         1 M4M       0.154000
     43 H14         -3.2170    -0.0700     2.3360 ha         1 M4M       0.129000
     44 H15         -5.3000     1.1740     1.8340 ha         1 M4M       0.129000
     45 H17         -3.5720     2.4870    -1.9260 ha         1 M4M       0.129000
     46 H18         -1.5170     1.2230    -1.4070 ha         1 M4M       0.129000
@<TRIPOS>BOND
     1     1     5 ar  
     2     1    15 ar  
     3     1    32 1   
     4     2    21 1   
     5     2    33 1   
     6     2    34 1   
     7     3    17 2   
     8     4     7 1   
     9     4    11 1   
    10     4    13 1   
    11     4    22 1   
    12     5     9 ar  
    13     5    35 1   
    14     6    24 1   
    15     6    25 1   
    16     6    36 1   
    17     8    10 1   
    18     8    16 2   
    19     8    20 2   
    20     8    28 1   
    21     9    12 ar  
    22     9    37 1   
    23    10    38 1   
    24    10    39 1   
    25    12    14 ar  
    26    12    40 1   
    27    14    15 ar  
    28    14    41 1   
    29    15    17 1   
    30    17    19 1   
    31    18    32 2   
    32    19    21 ar  
    33    19    31 ar  
    34    21    22 ar  
    35    22    23 ar  
    36    23    24 ar  
    37    23    42 1   
    38    24    31 ar  
    39    25    26 ar  
    40    25    30 ar  
    41    26    27 ar  
    42    26    43 1   
    43    27    28 ar  
    44    27    44 1   
    45    28    29 ar  
    46    29    30 ar  
    47    29    45 1   
    48    30    46 1   
    49    31    32 1   
@<TRIPOS>SUBSTRUCTURE
     1 M4M         1 TEMP              0 ****  ****    0 ROOT
