@<TRIPOS>MOLECULE
M4N
   26    27     1     0     0
SMALL
No Charge or Current Charge


@<TRIPOS>ATOM
      1 C10         24.7760   -20.5020    23.9950 ca         1 M4N      -0.115500
      2 C13         22.0740   -20.9590    24.5930 ca         1 M4N      -0.089000
      3 C01         22.0320   -29.4440    25.4330 c3         1 M4N       0.095300
      4 C04         22.4160   -25.6830    25.0100 cc         1 M4N      -0.215600
      5 C07         22.4850   -23.4370    24.8110 cd         1 M4N       0.302500
      6 C08         22.9620   -22.0590    24.5370 ca         1 M4N      -0.120500
      7 C09         24.3220   -21.8100    24.2410 ca         1 M4N      -0.089000
      8 C11         23.8810   -19.4230    24.0460 ca         1 M4N      -0.103000
      9 C12         22.5300   -19.6530    24.3460 ca         1 M4N      -0.115500
     10 C14         23.2210   -24.6340    24.6540 cd         1 M4N      -0.144000
     11 N02         21.8530   -27.9910    25.3810 ns         1 M4N      -0.510900
     12 N05         21.2190   -25.0570    25.3670 na         1 M4N      -0.003200
     13 N06         21.2580   -23.6760    25.2440 nc         1 M4N      -0.502800
     14 O15         23.9400   -27.4830    24.6320 o          1 M4N      -0.580100
     15 H1          25.8250   -20.3270    23.7670 ha         1 M4N       0.113000
     16 H2          21.0210   -21.1100    24.8250 ha         1 M4N       0.120500
     17 H3          21.1060   -29.9170    25.7840 h1         1 M4N       0.045700
     18 H4          22.2730   -29.8230    24.4310 h1         1 M4N       0.045700
     19 H5          22.8490   -29.6920    26.1230 h1         1 M4N       0.045700
     20 H6          25.0410   -22.6240    24.2030 ha         1 M4N       0.120500
     21 H7          24.2340   -18.4120    23.8560 ha         1 M4N       0.113000
     22 H8          21.8340   -18.8180    24.3900 ha         1 M4N       0.113000
     23 H9          24.2450   -24.7160    24.3070 ha         1 M4N       0.160000
     24 H10         20.9590   -27.6060    25.6550 hn         1 M4N       0.311500
     25 H11         20.3690   -25.5180    25.6920 hn         1 M4N       0.372000
     26 C03         22.8300   -27.1070    24.9800 c          1 M4N       0.630700
@<TRIPOS>BOND
     1     1     7 ar  
     2     1     8 ar  
     3     1    15 1   
     4     2     6 ar  
     5     2     9 ar  
     6     2    16 1   
     7     3    11 1   
     8     3    17 1   
     9     3    18 1   
    10     3    19 1   
    11     4    10 2   
    12     4    12 1   
    13     4    26 1   
    14     5     6 1   
    15     5    10 1   
    16     5    13 2   
    17     6     7 ar  
    18     7    20 1   
    19     8     9 ar  
    20     8    21 1   
    21     9    22 1   
    22    10    23 1   
    23    11    24 1   
    24    11    26 1   
    25    12    13 1   
    26    12    25 1   
    27    14    26 2   
@<TRIPOS>SUBSTRUCTURE
     1 M4N         1 TEMP              0 ****  ****    0 ROOT
