@<TRIPOS>MOLECULE
M4N
   26    27     1     0     0
SMALL
abcg2


@<TRIPOS>ATOM
      1 C10         24.7570   -20.4650    24.0780 ca         1 M4N      -0.115500
      2 C13         22.0860   -21.0190    24.6050 ca         1 M4N      -0.089000
      3 C01         22.0100   -29.3550    25.5990 c3         1 M4N       0.095300
      4 C04         22.4480   -25.6840    24.8230 cc         1 M4N      -0.215600
      5 C07         22.5610   -23.4690    24.6770 cd         1 M4N       0.302500
      6 C08         22.9980   -22.0770    24.5070 ca         1 M4N      -0.120500
      7 C09         24.3390   -21.7810    24.2410 ca         1 M4N      -0.089000
      8 C11         23.8420   -19.4220    24.1780 ca         1 M4N      -0.103000
      9 C12         22.5050   -19.7060    24.4430 ca         1 M4N      -0.115500
     10 C14         23.3270   -24.6510    24.5640 cd         1 M4N      -0.144000
     11 N02         21.8570   -27.9120    25.5230 ns         1 M4N      -0.510900
     12 N05         21.2470   -25.1020    25.0710 na         1 M4N      -0.003200
     13 N06         21.2890   -23.7680    24.9780 nc         1 M4N      -0.502800
     14 O15         23.6910   -27.5990    24.2310 o          1 M4N      -0.580100
     15 H1          25.7990   -20.2560    23.8740 ha         1 M4N       0.113000
     16 H2          21.0450   -21.2330    24.8080 ha         1 M4N       0.120500
     17 H3          21.1440   -29.7640    26.1130 h1         1 M4N       0.045700
     18 H4          22.0670   -29.7820    24.5980 h1         1 M4N       0.045700
     19 H5          22.9150   -29.6300    26.1440 h1         1 M4N       0.045700
     20 H6          25.0640   -22.5800    24.1630 ha         1 M4N       0.120500
     21 H7          24.1680   -18.3970    24.0520 ha         1 M4N       0.113000
     22 H8          21.7850   -18.9010    24.5210 ha         1 M4N       0.113000
     23 H9          24.3720   -24.7550    24.3350 ha         1 M4N       0.160000
     24 H10         21.1670   -27.4810    26.1160 hn         1 M4N       0.311500
     25 H11         20.3570   -25.5510    25.2260 hn         1 M4N       0.372000
     26 C03         22.7190   -27.1410    24.8350 c          1 M4N       0.630700
@<TRIPOS>BOND
     1     1     7 ar  
     2     1     8 ar  
     3     1    15 1   
     4     2     6 ar  
     5     2     9 ar  
     6     2    16 1   
     7     3    11 1   
     8     3    17 1   
     9     3    18 1   
    10     3    19 1   
    11     4    10 2   
    12     4    12 1   
    13     4    26 1   
    14     5     6 1   
    15     5    10 1   
    16     5    13 2   
    17     6     7 ar  
    18     7    20 1   
    19     8     9 ar  
    20     8    21 1   
    21     9    22 1   
    22    10    23 1   
    23    11    24 1   
    24    11    26 1   
    25    12    13 1   
    26    12    25 1   
    27    14    26 2   
@<TRIPOS>SUBSTRUCTURE
     1 M4N         1 TEMP              0 ****  ****    0 ROOT
