@<TRIPOS>MOLECULE
M4P
   43    45     1     0     0
SMALL
No Charge or Current Charge


@<TRIPOS>ATOM
      1 O3         -10.1530    -0.0420    -0.1920 o          1 M4P      -0.709500
      2 C4           5.2580     0.7240     0.1890 ca         1 M4P       0.365000
      3 C5           2.8840    -0.0610     0.1220 cc         1 M4P       0.841900
      4 C6           1.9680    -1.7950    -0.2080 cd         1 M4P       0.776400
      5 N1           3.8760     0.8140     0.2910 nu         1 M4P      -0.926900
      6 C7          -0.4180    -1.1410    -0.1330 c          1 M4P       0.637900
      7 C8          -2.6160     0.2070     0.0140 ca         1 M4P      -0.132000
      8 N2           3.1720    -1.3550    -0.0910 nc         1 M4P      -0.832000
      9 C9          -3.0780     1.5220     0.2150 ca         1 M4P      -0.080000
     10 C10         -4.4550     1.8010     0.2290 ca         1 M4P      -0.180000
     11 C11         -5.3920     0.7730     0.0430 ca         1 M4P       0.177100
     12 C12         -7.7760     0.1190    -0.1140 c3         1 M4P      -0.001400
     13 N3           1.8490    -3.0950    -0.4650 nv         1 M4P      -1.068900
     14 C13         -9.2090     0.7240    -0.0480 c          1 M4P       0.729000
     15 C14         -4.9380    -0.5470    -0.1600 ca         1 M4P      -0.180000
     16 C15         -3.5590    -0.8280    -0.1750 ca         1 M4P      -0.080000
     17 N4           0.9640    -0.8630    -0.0710 n          1 M4P      -0.104500
     18 N           10.6700     0.5380    -0.1840 n1         1 M4P      -0.480000
     19 O           -0.8640    -2.2760    -0.2870 o          1 M4P      -0.620100
     20 C1           8.0730     0.6240    -0.0030 ca         1 M4P      -0.079000
     21 C16          5.9590     1.7430    -0.4730 ca         1 M4P      -0.176500
     22 C17          7.3620     1.6950    -0.5760 ca         1 M4P      -0.035000
     23 C2           7.3740    -0.3920     0.6750 ca         1 M4P      -0.035000
     24 C3           5.9720    -0.3360     0.7730 ca         1 M4P      -0.176500
     25 N6           1.6380     0.3440     0.1490 nd         1 M4P      -0.625800
     26 O1          -6.7310     1.1060     0.0670 os         1 M4P      -0.287100
     27 O2          -9.3500     1.9270     0.1430 o          1 M4P      -0.709500
     28 H2           3.4950     1.7480     0.2060 hn         1 M4P       0.511000
     29 H3          -2.3680     2.3340     0.3610 ha         1 M4P       0.108000
     30 H4          -4.8000     2.8200     0.3860 ha         1 M4P       0.130000
     31 H5          -7.7060    -0.6520     0.6640 h1         1 M4P       0.019200
     32 H6          -7.6670    -0.3690    -1.0910 h1         1 M4P       0.019200
     33 H7           0.9250    -3.4850    -0.3080 hn         1 M4P       0.520500
     34 H8           2.6410    -3.6600    -0.1870 hn         1 M4P       0.520500
     35 H9          -5.6370    -1.3640    -0.3070 ha         1 M4P       0.130000
     36 H10         -3.2490    -1.8560    -0.3350 ha         1 M4P       0.108000
     37 H11          5.4190     2.5740    -0.9180 ha         1 M4P       0.137500
     38 H12          7.8910     2.4900    -1.0990 ha         1 M4P       0.120000
     39 H13          7.9130    -1.2220     1.1300 ha         1 M4P       0.120000
     40 H14          5.4430    -1.1170     1.3100 ha         1 M4P       0.137500
     41 H15         -0.6600     0.8390     0.1360 hn         1 M4P       0.182000
     42 C            9.5060     0.5720    -0.1040 cg         1 M4P       0.341000
     43 N5          -1.2050    -0.0040     0.0100 ns         1 M4P      -0.112000
@<TRIPOS>BOND
     1     1    14 1   
     2     2     5 1   
     3     2    21 ar  
     4     2    24 ar  
     5     3     5 1   
     6     3     8 1   
     7     3    25 2   
     8     4     8 2   
     9     4    13 1   
    10     4    17 1   
    11     5    28 1   
    12     6    17 1   
    13     6    19 2   
    14     6    43 1   
    15     7     9 ar  
    16     7    16 ar  
    17     7    43 1   
    18     9    10 ar  
    19     9    29 1   
    20    10    11 ar  
    21    10    30 1   
    22    11    15 ar  
    23    11    26 1   
    24    12    14 1   
    25    12    26 1   
    26    12    31 1   
    27    12    32 1   
    28    13    33 1   
    29    13    34 1   
    30    14    27 1   
    31    15    16 ar  
    32    15    35 1   
    33    16    36 1   
    34    17    25 1   
    35    18    42 3   
    36    20    22 ar  
    37    20    23 ar  
    38    20    42 1   
    39    21    22 ar  
    40    21    37 1   
    41    22    38 1   
    42    23    24 ar  
    43    23    39 1   
    44    24    40 1   
    45    41    43 1   
@<TRIPOS>SUBSTRUCTURE
     1 M4P         1 TEMP              0 ****  ****    0 ROOT
