@<TRIPOS>MOLECULE
M4P
   43    45     1     0     0
SMALL
abcg2


@<TRIPOS>ATOM
      1 O3          -9.8210    -0.0780    -0.6760 o          1 M4P      -0.709500
      2 C4           5.1410     0.7130    -0.1880 ca         1 M4P       0.365000
      3 C5           2.8010    -0.1100    -0.0340 cc         1 M4P       0.841900
      4 C6           1.8390    -1.9290     0.3640 cd         1 M4P       0.776400
      5 N1           3.7720     0.8260    -0.2470 nu         1 M4P      -0.926900
      6 C7          -0.4840    -1.0610     0.1860 c          1 M4P       0.637900
      7 C8          -2.5070     0.2760    -0.0020 ca         1 M4P      -0.132000
      8 N2           3.0440    -1.4070     0.2600 nc         1 M4P      -0.832000
      9 C9          -3.0180     1.3920     0.6580 ca         1 M4P      -0.080000
     10 C10         -4.3800     1.6180     0.7090 ca         1 M4P      -0.180000
     11 C11         -5.2730     0.7210     0.1150 ca         1 M4P       0.177100
     12 C12         -7.5190     0.1460    -0.3790 c3         1 M4P      -0.001400
     13 N3           1.5730    -3.2060     0.6180 nv         1 M4P      -1.068900
     14 C13         -8.9550     0.6380    -0.1370 c          1 M4P       0.729000
     15 C14         -4.7600    -0.3940    -0.5470 ca         1 M4P      -0.180000
     16 C15         -3.3890    -0.6050    -0.6110 ca         1 M4P      -0.080000
     17 N4           0.9070    -0.9580     0.1360 n          1 M4P      -0.104500
     18 N           10.5140     0.6390    -0.0420 n1         1 M4P      -0.480000
     19 O           -1.0150    -2.1290     0.4290 o          1 M4P      -0.620100
     20 C1           7.9400     0.6800    -0.1120 ca         1 M4P      -0.079000
     21 C16          5.8860     1.8560    -0.5230 ca         1 M4P      -0.176500
     22 C17          7.2610     1.8420    -0.4870 ca         1 M4P      -0.035000
     23 C2           7.2060    -0.4580     0.2240 ca         1 M4P      -0.035000
     24 C3           5.8260    -0.4500     0.1890 ca         1 M4P      -0.176500
     25 N6           1.5420     0.2300    -0.1210 nd         1 M4P      -0.625800
     26 O1          -6.5790     1.0120     0.2280 os         1 M4P      -0.287100
     27 O2          -9.1230     1.6570     0.5480 o          1 M4P      -0.709500
     28 H2           3.4170     1.7340    -0.5050 hn         1 M4P       0.511000
     29 H3          -2.3450     2.0920     1.1370 ha         1 M4P       0.108000
     30 H4          -4.7630     2.4910     1.2210 ha         1 M4P       0.130000
     31 H5          -7.4220    -0.8710     0.0210 h1         1 M4P       0.019200
     32 H6          -7.3400     0.0820    -1.4600 h1         1 M4P       0.019200
     33 H7           0.6320    -3.5070     0.8030 hn         1 M4P       0.520500
     34 H8           2.3350    -3.8040     0.8880 hn         1 M4P       0.520500
     35 H9          -5.4090    -1.1090    -1.0330 ha         1 M4P       0.130000
     36 H10         -3.0220    -1.4650    -1.1530 ha         1 M4P       0.108000
     37 H11          5.3730     2.7620    -0.8200 ha         1 M4P       0.137500
     38 H12          7.8110     2.7340    -0.7540 ha         1 M4P       0.120000
     39 H13          7.7190    -1.3630     0.5200 ha         1 M4P       0.120000
     40 H14          5.2840    -1.3440     0.4540 ha         1 M4P       0.137500
     41 H15         -0.5310     0.9250    -0.1600 hn         1 M4P       0.182000
     42 C            9.3610     0.6570    -0.0720 cg         1 M4P       0.341000
     43 N5          -1.1090     0.1020    -0.0600 ns         1 M4P      -0.112000
@<TRIPOS>BOND
     1     1    14 1   
     2     2     5 1   
     3     2    21 ar  
     4     2    24 ar  
     5     3     5 1   
     6     3     8 1   
     7     3    25 2   
     8     4     8 2   
     9     4    13 1   
    10     4    17 1   
    11     5    28 1   
    12     6    17 1   
    13     6    19 2   
    14     6    43 1   
    15     7     9 ar  
    16     7    16 ar  
    17     7    43 1   
    18     9    10 ar  
    19     9    29 1   
    20    10    11 ar  
    21    10    30 1   
    22    11    15 ar  
    23    11    26 1   
    24    12    14 1   
    25    12    26 1   
    26    12    31 1   
    27    12    32 1   
    28    13    33 1   
    29    13    34 1   
    30    14    27 1   
    31    15    16 ar  
    32    15    35 1   
    33    16    36 1   
    34    17    25 1   
    35    18    42 3   
    36    20    22 ar  
    37    20    23 ar  
    38    20    42 1   
    39    21    22 ar  
    40    21    37 1   
    41    22    38 1   
    42    23    24 ar  
    43    23    39 1   
    44    24    40 1   
    45    41    43 1   
@<TRIPOS>SUBSTRUCTURE
     1 M4P         1 TEMP              0 ****  ****    0 ROOT
