@<TRIPOS>MOLECULE
M4Q
   30    31     1     0     0
SMALL
No Charge or Current Charge


@<TRIPOS>ATOM
      1 CAA         -0.5350     0.3410     1.4330 c3         1 M4Q       0.150100
      2 CAD         -4.6160    -0.8850    -0.5290 cc         1 M4Q      -0.246000
      3 CAE         -3.3780    -0.3940    -0.8570 cd         1 M4Q      -0.104000
      4 CAF         -4.0200     1.2310     0.6710 cc         1 M4Q      -0.244000
      5 CAG          2.9190     0.7420     0.8590 c6         1 M4Q      -0.285700
      6 CAH         -1.7100     1.5240    -0.3920 c3         1 M4Q       0.237100
      7 CAI          0.7580     1.3490    -0.4470 c3         1 M4Q       0.121500
      8 CAM         -3.0260     0.8100    -0.1820 cd         1 M4Q      -0.109300
      9 CAN          2.0200     0.4830    -0.3170 c2         1 M4Q       0.494300
     10 CAO          4.3140     0.4080     0.4220 c          1 M4Q       0.584000
     11 CAP          3.4000    -1.2770    -1.0720 c          1 M4Q       0.699400
     12 NAJ          2.2570    -0.4770    -1.1650 ne         1 M4Q      -0.596100
     13 NAK          4.3880    -0.7240    -0.3140 ns         1 M4Q      -0.496500
     14 NAQ         -0.5270     0.7170    -0.0030 n3         1 M4Q      -0.695600
     15 OAB          5.2770     1.1290     0.6160 o          1 M4Q      -0.512000
     16 OAC          3.5580    -2.3320    -1.6560 o          1 M4Q      -0.474000
     17 SAL         -5.4050     0.1460     0.6540 ss         1 M4Q       0.192000
     18 H1          -0.4290     1.2290     2.0710 h1         1 M4Q       0.039033
     19 H2          -1.4700    -0.1660     1.7050 h1         1 M4Q       0.039033
     20 H3           0.2850    -0.3500     1.6640 h1         1 M4Q       0.039033
     21 H5          -2.7180    -0.8830    -1.5690 ha         1 M4Q       0.150000
     22 H6          -4.0400     2.1020     1.3130 h4         1 M4Q       0.146000
     23 H7           2.8650     1.7660     1.2480 hc         1 M4Q       0.104200
     24 H8           2.6260     0.0190     1.6290 hc         1 M4Q       0.104200
     25 H9          -1.6460     1.7890    -1.4560 h1         1 M4Q       0.037200
     26 H10         -1.7230     2.4670     0.1720 h1         1 M4Q       0.037200
     27 H11          0.9130     2.2860     0.1040 h1         1 M4Q       0.048200
     28 H12          0.6720     1.6310    -1.5050 h1         1 M4Q       0.048200
     29 H13          5.3060    -1.1210    -0.4410 hn         1 M4Q       0.340500
     30 H4          -5.1200    -1.7730    -0.8890 h4         1 M4Q       0.152000
@<TRIPOS>BOND
     1     1    14 1   
     2     1    18 1   
     3     1    19 1   
     4     1    20 1   
     5     2     3 2   
     6     2    17 1   
     7     2    30 1   
     8     3     8 1   
     9     3    21 1   
    10     4     8 2   
    11     4    17 1   
    12     4    22 1   
    13     5     9 1   
    14     5    10 1   
    15     5    23 1   
    16     5    24 1   
    17     6     8 1   
    18     6    14 1   
    19     6    25 1   
    20     6    26 1   
    21     7     9 1   
    22     7    14 1   
    23     7    27 1   
    24     7    28 1   
    25     9    12 2   
    26    10    13 1   
    27    10    15 2   
    28    11    12 1   
    29    11    13 1   
    30    11    16 2   
    31    13    29 1   
@<TRIPOS>SUBSTRUCTURE
     1 M4Q         1 TEMP              0 ****  ****    0 ROOT
