@<TRIPOS>MOLECULE
M4Q
   30    31     1     0     0
SMALL
abcg2


@<TRIPOS>ATOM
      1 CAA         -0.6870     0.0140     1.5770 c3         1 M4Q       0.150100
      2 CAD         -4.2960    -0.8390    -1.0890 cc         1 M4Q      -0.246000
      3 CAE         -3.0480    -0.3010    -1.0650 cd         1 M4Q      -0.104000
      4 CAF         -4.1100     1.0530     0.4770 cc         1 M4Q      -0.244000
      5 CAG          3.2140     1.2650     0.1240 c6         1 M4Q      -0.285700
      6 CAH         -1.6710     1.5770     0.0390 c3         1 M4Q       0.237100
      7 CAI          0.7040     1.4110     0.2250 c3         1 M4Q       0.121500
      8 CAM         -2.9340     0.7980    -0.1610 cd         1 M4Q      -0.109300
      9 CAN          1.9100     0.5510    -0.0040 c2         1 M4Q       0.494300
     10 CAO          4.4200     0.4430    -0.2120 c          1 M4Q       0.584000
     11 CAP          2.9050    -1.4560    -0.5570 c          1 M4Q       0.699400
     12 NAJ          1.7790    -0.6800    -0.3020 ne         1 M4Q      -0.596100
     13 NAK          4.1540    -0.8620    -0.5150 ns         1 M4Q      -0.496500
     14 NAQ         -0.5420     0.7020     0.3100 n3         1 M4Q      -0.695600
     15 OAB          5.5460     0.8840    -0.2080 o          1 M4Q      -0.512000
     16 OAC          2.8000    -2.6300    -0.8210 o          1 M4Q      -0.474000
     17 SAL         -5.3550    -0.0210    -0.0160 ss         1 M4Q       0.192000
     18 H1          -0.7140     0.7040     2.4350 h1         1 M4Q       0.039033
     19 H2          -1.6120    -0.5630     1.5860 h1         1 M4Q       0.039033
     20 H3           0.1330    -0.6860     1.7270 h1         1 M4Q       0.039033
     21 H5          -2.2250    -0.6700    -1.6620 ha         1 M4Q       0.150000
     22 H6          -4.3050     1.8160     1.2160 h4         1 M4Q       0.146000
     23 H7           3.2090     2.1590    -0.5050 hc         1 M4Q       0.104200
     24 H8           3.3210     1.6330     1.1490 hc         1 M4Q       0.104200
     25 H9          -1.4520     2.1350    -0.8760 h1         1 M4Q       0.037200
     26 H10         -1.8220     2.3260     0.8330 h1         1 M4Q       0.037200
     27 H11          0.9030     2.0560     1.0990 h1         1 M4Q       0.048200
     28 H12          0.6750     2.0980    -0.6290 h1         1 M4Q       0.048200
     29 H13          4.9450    -1.4590    -0.7310 hn         1 M4Q       0.340500
     30 H4          -4.6510    -1.6710    -1.6780 h4         1 M4Q       0.152000
@<TRIPOS>BOND
     1     1    14 1   
     2     1    18 1   
     3     1    19 1   
     4     1    20 1   
     5     2     3 2   
     6     2    17 1   
     7     2    30 1   
     8     3     8 1   
     9     3    21 1   
    10     4     8 2   
    11     4    17 1   
    12     4    22 1   
    13     5     9 1   
    14     5    10 1   
    15     5    23 1   
    16     5    24 1   
    17     6     8 1   
    18     6    14 1   
    19     6    25 1   
    20     6    26 1   
    21     7     9 1   
    22     7    14 1   
    23     7    27 1   
    24     7    28 1   
    25     9    12 2   
    26    10    13 1   
    27    10    15 2   
    28    11    12 1   
    29    11    13 1   
    30    11    16 2   
    31    13    29 1   
@<TRIPOS>SUBSTRUCTURE
     1 M4Q         1 TEMP              0 ****  ****    0 ROOT
