@<TRIPOS>MOLECULE
M4R
   51    53     1     0     0
SMALL
bcc


@<TRIPOS>ATOM
      1 N28          4.6100    -3.8990    -2.1400 n1         1 M4R      -0.371800
      2 C27          4.1620    -3.0520    -1.4990 cg         1 M4R       0.237800
      3 C23          3.6070    -2.0050    -0.7030 ca         1 M4R       0.016000
      4 C24          4.4570    -1.1790     0.0200 ca         1 M4R      -0.105000
      5 C25          3.9180    -0.1610     0.8030 ca         1 M4R      -0.029300
      6 C29          4.8010     0.7730     1.5760 c3         1 M4R      -0.027100
      7 C30          5.1190     2.0580     0.8010 c3         1 M4R       0.174500
      8 C31          5.8760     3.0370     1.6980 c3         1 M4R      -0.129100
      9 N32          5.8090     1.7180    -0.4300 n7         1 M4R      -0.810200
     10 C33          5.9120     2.7980    -1.3880 c3         1 M4R       0.151100
     11 C22          2.2190    -1.8430    -0.6790 ca         1 M4R      -0.190000
     12 C21          1.6880    -0.8250     0.1010 ca         1 M4R       0.143100
     13 C26          2.5420     0.0020     0.8350 ca         1 M4R      -0.147000
     14 O13          0.3740    -0.5620     0.2120 os         1 M4R      -0.317900
     15 C12         -0.5520    -1.3870    -0.4820 c3         1 M4R       0.186700
     16 C08         -1.9280    -0.9290    -0.1020 ca         1 M4R      -0.075300
     17 C09         -2.7510    -0.3340    -1.0250 ca         1 M4R      -0.163300
     18 C07         -2.3770    -1.1080     1.2210 ca         1 M4R      -0.126000
     19 C06         -3.6310    -0.6920     1.5860 ca         1 M4R      -0.098000
     20 C05         -4.4920    -0.0800     0.6530 ca         1 M4R      -0.181300
     21 C04         -5.8100     0.3710     0.9810 ca         1 M4R       0.006700
     22 C11         -6.3530     0.2080     2.3640 c3         1 M4R      -0.056800
     23 C03         -6.5490     0.9500    -0.0030 ca         1 M4R      -0.294300
     24 C02         -6.0120     1.0880    -1.3190 ca         1 M4R       0.684200
     25 N02         -6.7570     1.7040    -2.2710 nv         1 M4R      -0.956500
     26 N01         -4.8090     0.6750    -1.6410 nb         1 M4R      -0.759000
     27 C10         -4.0500     0.1020    -0.6780 ca         1 M4R       0.451600
     28 H1           5.5270    -1.3320    -0.0210 ha         1 M4R       0.144000
     29 H2           4.3130     1.0440     2.5160 hc         1 M4R       0.050200
     30 H3           5.7380     0.2760     1.8420 hc         1 M4R       0.050200
     31 H4           4.1660     2.5190     0.5140 h1         1 M4R       0.063700
     32 H5           5.3020     3.2800     2.5940 hc         1 M4R       0.038033
     33 H6           6.8280     2.6070     2.0180 hc         1 M4R       0.038033
     34 H7           6.0890     3.9740     1.1820 hc         1 M4R       0.038033
     35 H8           6.7340     1.3680    -0.2110 hn         1 M4R       0.351800
     36 H10          4.9140     3.1030    -1.7070 h1         1 M4R       0.029033
     37 H11          6.4310     3.6980    -1.0310 h1         1 M4R       0.029033
     38 H12          6.4440     2.4490    -2.2730 h1         1 M4R       0.029033
     39 H13          1.5960    -2.5070    -1.2620 ha         1 M4R       0.145000
     40 H14          2.1080     0.7890     1.4410 ha         1 M4R       0.145000
     41 H15         -0.4030    -1.3100    -1.5640 h1         1 M4R       0.044700
     42 H16         -0.4110    -2.4350    -0.1970 h1         1 M4R       0.044700
     43 H17         -2.4190    -0.1870    -2.0460 ha         1 M4R       0.148000
     44 H18         -1.7330    -1.5850     1.9510 ha         1 M4R       0.137000
     45 H19         -3.9610    -0.8400     2.6060 ha         1 M4R       0.130000
     46 H20         -6.3880    -0.8450     2.6510 hc         1 M4R       0.049367
     47 H21         -5.7270     0.7180     3.0980 hc         1 M4R       0.049367
     48 H22         -7.3610     0.6100     2.4430 hc         1 M4R       0.049367
     49 H23         -7.5500     1.3120     0.2010 ha         1 M4R       0.137000
     50 H24         -7.7520     1.7720    -2.1370 hn         1 M4R       0.422800
     51 H25         -6.4580     1.6080    -3.2270 hn         1 M4R       0.422800
@<TRIPOS>BOND
     1     1     2 3   
     2     2     3 1   
     3     3     4 ar  
     4     3    11 ar  
     5     4     5 ar  
     6     4    28 1   
     7     5     6 1   
     8     5    13 ar  
     9     6     7 1   
    10     6    29 1   
    11     6    30 1   
    12     7     8 1   
    13     7     9 1   
    14     7    31 1   
    15     8    32 1   
    16     8    33 1   
    17     8    34 1   
    18     9    10 1   
    19     9    35 1   
    20    10    36 1   
    21    10    37 1   
    22    10    38 1   
    23    11    12 ar  
    24    11    39 1   
    25    12    13 ar  
    26    12    14 1   
    27    13    40 1   
    28    14    15 1   
    29    15    16 1   
    30    15    41 1   
    31    15    42 1   
    32    16    17 ar  
    33    16    18 ar  
    34    17    27 ar  
    35    17    43 1   
    36    18    19 ar  
    37    18    44 1   
    38    19    20 ar  
    39    19    45 1   
    40    20    21 ar  
    41    20    27 ar  
    42    21    22 1   
    43    21    23 ar  
    44    22    46 1   
    45    22    47 1   
    46    22    48 1   
    47    23    24 ar  
    48    23    49 1   
    49    24    25 1   
    50    24    26 ar  
    51    25    50 1   
    52    25    51 1   
    53    26    27 ar  
@<TRIPOS>SUBSTRUCTURE
     1 M4R         1 TEMP              0 ****  ****    0 ROOT
