@<TRIPOS>MOLECULE
M4R
   51    53     1     0     0
SMALL
No Charge or Current Charge


@<TRIPOS>ATOM
      1 N28          4.7490    -4.2260    -1.7340 n1         1 M4R      -0.461000
      2 C27          4.2820    -3.3120    -1.1740 cg         1 M4R       0.327000
      3 C23          3.6980    -2.1950    -0.4810 ca         1 M4R       0.016000
      4 C24          4.5280    -1.2330     0.1270 ca         1 M4R      -0.087000
      5 C25          3.9690    -0.1340     0.8040 ca         1 M4R      -0.029300
      6 C29          4.8670     0.9100     1.4630 c3         1 M4R      -0.027100
      7 C30          5.0430     2.1890     0.6060 c3         1 M4R       0.174500
      8 C31          5.7850     3.2980     1.3840 c3         1 M4R      -0.129100
      9 N32          5.7820     1.8650    -0.6350 n7         1 M4R      -0.865400
     10 C33          5.6990     2.8490    -1.7340 c3         1 M4R       0.151100
     11 C22          2.2980    -2.0570    -0.4090 ca         1 M4R      -0.172000
     12 C21          1.7310    -0.9570     0.2700 ca         1 M4R       0.143100
     13 C26          2.5690    -0.0050     0.8710 ca         1 M4R      -0.129000
     14 O13          0.3680    -0.7690     0.3740 os         1 M4R      -0.341100
     15 C12         -0.5800    -1.6820    -0.2040 c3         1 M4R       0.209900
     16 C08         -1.9830    -1.1730     0.0970 ca         1 M4R      -0.075300
     17 C09         -2.5800    -0.2070    -0.7330 ca         1 M4R      -0.080000
     18 C07         -2.6930    -1.6580     1.2080 ca         1 M4R      -0.108000
     19 C06         -3.9860    -1.1860     1.4840 ca         1 M4R      -0.080000
     20 C05         -4.5880    -0.2170     0.6500 ca         1 M4R      -0.116000
     21 C04         -5.8920     0.2730     0.9090 ca         1 M4R       0.006700
     22 C11         -6.7350    -0.1990     2.0890 c3         1 M4R      -0.056800
     23 C03         -6.4090     1.2350     0.0270 ca         1 M4R      -0.211000
     24 C02         -5.6200     1.6530    -1.0420 ca         1 M4R       0.618900
     25 N02         -6.0090     2.5530    -1.9460 nv         1 M4R      -1.066900
     26 N01         -4.4030     1.2110    -1.3090 nb         1 M4R      -0.759000
     27 C10         -3.8750     0.2820    -0.4770 ca         1 M4R       0.321000
     28 H1           5.6100    -1.3360     0.0670 ha         1 M4R       0.126000
     29 H2           4.4360     1.1910     2.4310 hc         1 M4R       0.050200
     30 H3           5.8520     0.4830     1.6880 hc         1 M4R       0.050200
     31 H4           4.0360     2.5600     0.3610 h1         1 M4R       0.063700
     32 H5           5.2600     3.5250     2.3200 hc         1 M4R       0.038033
     33 H6           6.8070     2.9880     1.6340 hc         1 M4R       0.038033
     34 H7           5.8360     4.2260     0.8030 hc         1 M4R       0.038033
     35 H8           6.7690     1.7140    -0.3970 hn         1 M4R       0.407000
     36 H10          4.6530     3.0390    -2.0100 h1         1 M4R       0.029033
     37 H11          6.1600     3.8040    -1.4510 h1         1 M4R       0.029033
     38 H12          6.2220     2.4740    -2.6240 h1         1 M4R       0.029033
     39 H13          1.6710    -2.8070    -0.8830 ha         1 M4R       0.127000
     40 H14          2.1250     0.8400     1.3910 ha         1 M4R       0.127000
     41 H15         -0.4420    -1.7470    -1.2910 h1         1 M4R       0.044700
     42 H16         -0.4560    -2.6880     0.2180 h1         1 M4R       0.044700
     43 H17         -2.0340     0.1750    -1.5910 ha         1 M4R       0.130000
     44 H18         -2.2430    -2.4020     1.8620 ha         1 M4R       0.119000
     45 H19         -4.5060    -1.5830     2.3520 ha         1 M4R       0.112000
     46 H20         -6.9200    -1.2790     2.0350 hc         1 M4R       0.049367
     47 H21         -6.2350     0.0140     3.0410 hc         1 M4R       0.049367
     48 H22         -7.7120     0.2980     2.1150 hc         1 M4R       0.049367
     49 H23         -7.4020     1.6520     0.1690 ha         1 M4R       0.119000
     50 H24         -7.0070     2.6850    -2.0670 hn         1 M4R       0.478000
     51 H25         -5.4440     2.5820    -2.7850 hn         1 M4R       0.478000
@<TRIPOS>BOND
     1     1     2 3   
     2     2     3 1   
     3     3     4 ar  
     4     3    11 ar  
     5     4     5 ar  
     6     4    28 1   
     7     5     6 1   
     8     5    13 ar  
     9     6     7 1   
    10     6    29 1   
    11     6    30 1   
    12     7     8 1   
    13     7     9 1   
    14     7    31 1   
    15     8    32 1   
    16     8    33 1   
    17     8    34 1   
    18     9    10 1   
    19     9    35 1   
    20    10    36 1   
    21    10    37 1   
    22    10    38 1   
    23    11    12 ar  
    24    11    39 1   
    25    12    13 ar  
    26    12    14 1   
    27    13    40 1   
    28    14    15 1   
    29    15    16 1   
    30    15    41 1   
    31    15    42 1   
    32    16    17 ar  
    33    16    18 ar  
    34    17    27 ar  
    35    17    43 1   
    36    18    19 ar  
    37    18    44 1   
    38    19    20 ar  
    39    19    45 1   
    40    20    21 ar  
    41    20    27 ar  
    42    21    22 1   
    43    21    23 ar  
    44    22    46 1   
    45    22    47 1   
    46    22    48 1   
    47    23    24 ar  
    48    23    49 1   
    49    24    25 1   
    50    24    26 ar  
    51    25    50 1   
    52    25    51 1   
    53    26    27 ar  
@<TRIPOS>SUBSTRUCTURE
     1 M4R         1 TEMP              0 ****  ****    0 ROOT
