@<TRIPOS>MOLECULE
M4S
   21    21     1     0     0
SMALL
No Charge or Current Charge


@<TRIPOS>ATOM
      1 C1          -0.0780    -1.2840    -0.0220 ca         1 M4S       0.031500
      2 N1           2.6760     0.3230    -1.4720 n8         1 M4S      -1.001100
      3 O1          -3.6470    -0.3960    -0.0920 os         1 M4S      -0.335100
      4 S1           2.3140     0.1270     0.1090 sy         1 M4S       1.132600
      5 C2          -1.4790    -1.3830    -0.0690 ca         1 M4S      -0.200000
      6 O2           2.9090    -1.1630     0.4470 o          1 M4S      -0.547500
      7 C3          -2.2780    -0.2300    -0.0440 ca         1 M4S       0.200100
      8 O3           2.7090     1.3810     0.7500 o          1 M4S      -0.547500
      9 C4          -1.6670     1.0390     0.0270 ca         1 M4S      -0.200000
     10 C5           0.5310    -0.0150     0.0480 ca         1 M4S      -0.323500
     11 C6          -4.5560     0.7190    -0.0720 c3         1 M4S       0.146900
     12 C7          -0.2660     1.1460     0.0740 ca         1 M4S       0.031500
     13 H1           0.5220    -2.1930    -0.0400 ha         1 M4S       0.137000
     14 HN1          1.8460    -0.0460    -1.9290 hn         1 M4S       0.470000
     15 HN1A         3.3710    -0.4090    -1.6010 hn         1 M4S       0.470000
     16 H2          -1.9490    -2.3610    -0.1230 ha         1 M4S       0.128500
     17 H4          -2.2570     1.9500     0.0470 ha         1 M4S       0.128500
     18 H6          -4.4370     1.3030     0.8500 h1         1 M4S       0.047033
     19 H6A         -4.3840     1.3790    -0.9320 h1         1 M4S       0.047033
     20 H6B         -5.5930     0.3650    -0.1180 h1         1 M4S       0.047033
     21 H7           0.1940     2.1330     0.1270 ha         1 M4S       0.137000
@<TRIPOS>BOND
     1     1     5 ar  
     2     1    10 ar  
     3     1    13 1   
     4     2     4 1   
     5     2    14 1   
     6     2    15 1   
     7     3     7 1   
     8     3    11 1   
     9     4     6 2   
    10     4     8 2   
    11     4    10 1   
    12     5     7 ar  
    13     5    16 1   
    14     7     9 ar  
    15     9    12 ar  
    16     9    17 1   
    17    10    12 ar  
    18    11    18 1   
    19    11    19 1   
    20    11    20 1   
    21    12    21 1   
@<TRIPOS>SUBSTRUCTURE
     1 M4S         1 TEMP              0 ****  ****    0 ROOT
