@<TRIPOS>MOLECULE
M4S
   21    21     1     0     0
SMALL
bcc


@<TRIPOS>ATOM
      1 C1          -0.1880    -1.3450     0.0290 ca         1 M4S       0.013500
      2 N1           2.5600     0.3640    -1.5040 n8         1 M4S      -0.890700
      3 O1          -3.6470    -0.3740    -0.0250 os         1 M4S      -0.311900
      4 S1           2.2070    -0.0210     0.0660 sy         1 M4S       1.274200
      5 C2          -1.5660    -1.4010     0.0090 ca         1 M4S      -0.218000
      6 O2           2.7110    -1.3320     0.4550 o          1 M4S      -0.618300
      7 C3          -2.3200    -0.2240    -0.0150 ca         1 M4S       0.200100
      8 O3           2.6220     1.1330     0.8520 o          1 M4S      -0.618300
      9 C4          -1.6710     1.0140    -0.0250 ca         1 M4S      -0.218000
     10 C5           0.4500    -0.1100     0.0190 ca         1 M4S      -0.323500
     11 C6          -4.4720     0.7780    -0.0400 c3         1 M4S       0.123700
     12 C7          -0.2880     1.0650    -0.0080 ca         1 M4S       0.013500
     13 H1           0.3810    -2.2640     0.0560 ha         1 M4S       0.155000
     14 HN1          2.3980    -0.4090    -2.1410 hn         1 M4S       0.414800
     15 HN1A         3.5160     0.6950    -1.5970 hn         1 M4S       0.414800
     16 H2          -2.0710    -2.3580     0.0190 ha         1 M4S       0.146500
     17 H4          -2.2260     1.9410    -0.0420 ha         1 M4S       0.146500
     18 H6          -4.3150     1.4000     0.8450 h1         1 M4S       0.047033
     19 H6A         -4.3060     1.3840    -0.9340 h1         1 M4S       0.047033
     20 H6B         -5.4970     0.4200    -0.0420 h1         1 M4S       0.047033
     21 H7           0.2020     2.0300    -0.0140 ha         1 M4S       0.155000
@<TRIPOS>BOND
     1     1     5 ar  
     2     1    10 ar  
     3     1    13 1   
     4     2     4 1   
     5     2    14 1   
     6     2    15 1   
     7     3     7 1   
     8     3    11 1   
     9     4     6 2   
    10     4     8 2   
    11     4    10 1   
    12     5     7 ar  
    13     5    16 1   
    14     7     9 ar  
    15     9    12 ar  
    16     9    17 1   
    17    10    12 ar  
    18    11    18 1   
    19    11    19 1   
    20    11    20 1   
    21    12    21 1   
@<TRIPOS>SUBSTRUCTURE
     1 M4S         1 TEMP              0 ****  ****    0 ROOT
