@<TRIPOS>MOLECULE
M4T
   18    18     1     0     0
SMALL
No Charge or Current Charge


@<TRIPOS>ATOM
      1 C10          1.2000    -1.2400    -0.1440 ca         1 M4T       0.282900
      2 C01         -3.5750    -0.5330    -0.1040 c3         1 M4T      -0.181100
      3 C02         -2.2750     0.2660    -0.0810 c          1 M4T       0.609100
      4 C05          0.2600    -0.1860    -0.1050 ca         1 M4T      -0.071000
      5 C06          0.7510     1.1380    -0.0610 ca         1 M4T      -0.099000
      6 C07          2.1430     1.3340    -0.0590 ca         1 M4T      -0.136000
      7 C08          2.9980     0.2200    -0.1000 ca         1 M4T       0.303900
      8 N04         -1.1270    -0.5170    -0.1120 ns         1 M4T      -0.144000
      9 N09          2.5410    -1.0520    -0.1410 nb         1 M4T      -0.643000
     10 O03         -2.2790     1.4900    -0.0390 o          1 M4T      -0.579100
     11 H1           0.8650    -2.2760    -0.1780 h4         1 M4T       0.011100
     12 H2          -3.5730    -1.1910    -0.9810 hc         1 M4T       0.065033
     13 H3          -3.5680    -1.2490     0.7250 hc         1 M4T       0.065033
     14 H4          -4.4640     0.1070    -0.0800 hc         1 M4T       0.065033
     15 H5           0.0940     2.0020    -0.0300 ha         1 M4T       0.153000
     16 H6           2.5620     2.3360    -0.0260 ha         1 M4T       0.125000
     17 H7           4.0800     0.3490    -0.0990 h4         1 M4T       0.022100
     18 H8          -1.3110    -1.5120    -0.1450 hn         1 M4T       0.152000
@<TRIPOS>BOND
     1     1     4 ar  
     2     1     9 ar  
     3     1    11 1   
     4     2     3 1   
     5     2    12 1   
     6     2    13 1   
     7     2    14 1   
     8     3     8 1   
     9     3    10 2   
    10     4     5 ar  
    11     4     8 1   
    12     5     6 ar  
    13     5    15 1   
    14     6     7 ar  
    15     6    16 1   
    16     7     9 ar  
    17     7    17 1   
    18     8    18 1   
@<TRIPOS>SUBSTRUCTURE
     1 M4T         1 TEMP              0 ****  ****    0 ROOT
