@<TRIPOS>MOLECULE
M4T
   18    18     1     0     0
SMALL
bcc


@<TRIPOS>ATOM
      1 C10          1.1900    -1.2160     0.0090 ca         1 M4T       0.348200
      2 C01         -3.5060    -0.5390    -0.1440 c3         1 M4T      -0.181100
      3 C02         -2.2060     0.2220    -0.1160 c          1 M4T       0.676100
      4 C05          0.2430    -0.1880    -0.0640 ca         1 M4T      -0.043700
      5 C06          0.7200     1.1190    -0.1390 ca         1 M4T      -0.117000
      6 C07          2.0920     1.3180    -0.1370 ca         1 M4T      -0.219300
      7 C08          2.9440     0.2290    -0.0620 ca         1 M4T       0.369200
      8 N04         -1.0980    -0.5650    -0.0570 ns         1 M4T      -0.470100
      9 N09          2.4950    -1.0200     0.0100 nb         1 M4T      -0.643000
     10 O03         -2.1660     1.4380    -0.1670 o          1 M4T      -0.579100
     11 H1           0.8530    -2.2480     0.0690 h4         1 M4T       0.011100
     12 H2          -3.9000    -0.5300    -1.1610 hc         1 M4T       0.065033
     13 H3          -3.4110    -1.5770     0.1710 hc         1 M4T       0.065033
     14 H4          -4.2340    -0.0430     0.4950 hc         1 M4T       0.065033
     15 H5           0.0500     1.9610    -0.1960 ha         1 M4T       0.171000
     16 H6           2.4940     2.3200    -0.1950 ha         1 M4T       0.143000
     17 H7           4.0190     0.3640    -0.0600 h4         1 M4T       0.022100
     18 H8          -1.2580    -1.5600    -0.0140 hn         1 M4T       0.318500
@<TRIPOS>BOND
     1     1     4 ar  
     2     1     9 ar  
     3     1    11 1   
     4     2     3 1   
     5     2    12 1   
     6     2    13 1   
     7     2    14 1   
     8     3     8 1   
     9     3    10 2   
    10     4     5 ar  
    11     4     8 1   
    12     5     6 ar  
    13     5    15 1   
    14     6     7 ar  
    15     6    16 1   
    16     7     9 ar  
    17     7    17 1   
    18     8    18 1   
@<TRIPOS>SUBSTRUCTURE
     1 M4T         1 TEMP              0 ****  ****    0 ROOT
