@<TRIPOS>MOLECULE
M4U
   67    71     1     0     0
SMALL
No Charge or Current Charge


@<TRIPOS>ATOM
      1 N1          12.4320    18.5420    24.7180 n          1 M4U      -0.397800
      2 N3           7.0570    14.3000    23.5020 nc         1 M4U      -0.468800
      3 C4          11.6200    18.2630    21.0570 ca         1 M4U      -0.025000
      4 C5          10.8850    17.4490    20.1770 ca         1 M4U      -0.135300
      5 C6          10.0090    16.4860    20.7050 ca         1 M4U      -0.056000
      6 C7          10.5930    16.9220    24.4970 c6         1 M4U      -0.056100
      7 C8          11.9710    17.1980    25.1100 c6         1 M4U       0.104000
      8 C10          8.8820    15.3030    22.5570 cd         1 M4U      -0.109000
      9 C13         14.6020    18.7310    25.9560 ca         1 M4U      -0.044300
     10 C15          8.7640    14.0730    21.9670 cc         1 M4U      -0.166000
     11 C17         14.5030    17.6990    17.6780 cc         1 M4U       0.230900
     12 C22         14.8450    17.9360    27.0910 ca         1 M4U      -0.200500
     13 C24         17.1560    17.6250    26.4050 ca         1 M4U      -0.236000
     14 C26         15.6480    18.9670    25.0450 ca         1 M4U      -0.200500
     15 C1           9.8330    16.3370    22.0950 ca         1 M4U      -0.023000
     16 C11         11.0150    17.6020    18.6630 c3         1 M4U       0.122900
     17 C12         13.2170    19.3170    25.7050 c3         1 M4U       0.137300
     18 C14          7.7530    15.4260    23.4290 cd         1 M4U       0.142300
     19 C16         12.8780    19.0960    17.7290 cd         1 M4U       0.409800
     20 C18         13.4390    16.9890    18.1670 cd         1 M4U      -0.231000
     21 C2          10.6150    17.1310    22.9780 ca         1 M4U      -0.005300
     22 C23         16.1130    17.3830    27.3210 ca         1 M4U       0.175600
     23 C25         16.9260    18.4130    25.2680 ca         1 M4U       0.175600
     24 C3          11.5120    18.0950    22.4520 ca         1 M4U      -0.154600
     25 C9          12.3770    18.9350    23.3670 c          1 M4U       0.578600
     26 N2          12.3850    17.8870    18.2010 na         1 M4U      -0.169500
     27 N4           7.6960    13.4720    22.6140 na         1 M4U       0.154800
     28 N5          14.1580    18.9940    17.4080 nc         1 M4U      -0.676000
     29 O1          12.9630    19.9300    22.9600 o          1 M4U      -0.562000
     30 O2          16.2830    16.6130    28.4530 os         1 M4U      -0.343100
     31 O3          17.9830    18.6120    24.4030 os         1 M4U      -0.343100
     32 H1          12.3020    19.0110    20.6580 ha         1 M4U       0.143000
     33 H2           9.4300    15.8660    20.0240 ha         1 M4U       0.118000
     34 H3           9.8780    17.6150    24.9540 hc         1 M4U       0.073200
     35 H4          10.2800    15.9030    24.7600 hc         1 M4U       0.073200
     36 H5          11.9130    17.1190    26.2050 h1         1 M4U       0.052200
     37 H6          12.6950    16.4510    24.7550 h1         1 M4U       0.052200
     38 H7           9.3430    13.5830    21.1940 h4         1 M4U       0.165000
     39 H8          15.5130    17.3540    17.5000 h4         1 M4U       0.035100
     40 H9          12.7410    21.2060    17.2860 hc         1 M4U       0.055367
     41 H10         11.3010    20.2700    16.8530 hc         1 M4U       0.055367
     42 H11         11.6360    20.6510    18.5530 hc         1 M4U       0.055367
     43 H12         14.0450    17.7410    27.8010 ha         1 M4U       0.128500
     44 H13         18.1470    17.2100    26.5540 ha         1 M4U       0.131000
     45 H14         15.4490    19.5780    24.1700 ha         1 M4U       0.128500
     46 H15         18.8080    19.4180    22.6610 h1         1 M4U       0.043200
     47 H16         17.0980    18.9580    22.5340 h1         1 M4U       0.043200
     48 H17         17.5670    20.4250    23.4340 h1         1 M4U       0.043200
     49 H18         10.3450    18.4040    18.3280 h1         1 M4U       0.068700
     50 H19         10.6810    16.6790    18.1720 h1         1 M4U       0.068700
     51 H20         13.3200    20.3580    25.3730 h1         1 M4U       0.073200
     52 H21         12.6590    19.3470    26.6500 h1         1 M4U       0.073200
     53 H22         13.3620    15.9550    18.4820 h4         1 M4U       0.153000
     54 H23          6.2310    12.1540    21.8770 h1         1 M4U       0.066367
     55 H24          7.9110    11.5490    21.7760 h1         1 M4U       0.066367
     56 H25          7.0750    11.6010    23.3560 h1         1 M4U       0.066367
     57 H26         17.4560    15.4340    29.7190 h1         1 M4U       0.043200
     58 H27         17.8540    15.3020    27.9930 h1         1 M4U       0.043200
     59 H28         18.3240    16.7570    28.9120 h1         1 M4U       0.043200
     60 C20          7.2320    16.6700    24.1500 c3         1 M4U       0.295700
     61 C19          7.1980    12.1090    22.3920 c3         1 M4U       0.063900
     62 C21         12.0970    20.3760    17.5980 c3         1 M4U      -0.125400
     63 C28         17.8540    19.3920    23.2010 c3         1 M4U       0.147400
     64 C27         17.5420    15.9990    28.7820 c3         1 M4U       0.147400
     65 F1           5.8800    16.7460    24.1130 f          1 M4U      -0.106333
     66 F2           7.6840    17.8230    23.6040 f          1 M4U      -0.106333
     67 F3           7.5790    16.6790    25.4580 f          1 M4U      -0.106333
@<TRIPOS>BOND
     1     1     7 1   
     2     1    17 1   
     3     1    25 1   
     4     2    18 2   
     5     2    27 1   
     6     3     4 ar  
     7     3    24 ar  
     8     3    32 1   
     9     4     5 ar  
    10     4    16 1   
    11     5    15 ar  
    12     5    33 1   
    13     6     7 1   
    14     6    21 1   
    15     6    34 1   
    16     6    35 1   
    17     7    36 1   
    18     7    37 1   
    19     8    10 2   
    20     8    15 1   
    21     8    18 1   
    22     9    12 ar  
    23     9    14 ar  
    24     9    17 1   
    25    10    27 1   
    26    10    38 1   
    27    11    20 2   
    28    11    28 1   
    29    11    39 1   
    30    12    22 ar  
    31    12    43 1   
    32    13    22 ar  
    33    13    23 ar  
    34    13    44 1   
    35    14    23 ar  
    36    14    45 1   
    37    15    21 ar  
    38    16    26 1   
    39    16    49 1   
    40    16    50 1   
    41    17    51 1   
    42    17    52 1   
    43    18    60 1   
    44    19    26 1   
    45    19    28 2   
    46    19    62 1   
    47    20    26 1   
    48    20    53 1   
    49    21    24 ar  
    50    22    30 1   
    51    23    31 1   
    52    24    25 1   
    53    25    29 2   
    54    27    61 1   
    55    30    64 1   
    56    31    63 1   
    57    40    62 1   
    58    41    62 1   
    59    42    62 1   
    60    46    63 1   
    61    47    63 1   
    62    48    63 1   
    63    54    61 1   
    64    55    61 1   
    65    56    61 1   
    66    57    64 1   
    67    58    64 1   
    68    59    64 1   
    69    60    65 1   
    70    60    66 1   
    71    60    67 1   
@<TRIPOS>SUBSTRUCTURE
     1 M4U         1 TEMP              0 ****  ****    0 ROOT
