@<TRIPOS>MOLECULE
M4U
   67    71     1     0     0
SMALL
bcc


@<TRIPOS>ATOM
      1 N1          12.3350    18.7010    24.8280 n          1 M4U      -0.464800
      2 N3           7.4310    14.0340    23.1640 nc         1 M4U      -0.468800
      3 C4          11.3950    18.7980    21.3060 ca         1 M4U      -0.043000
      4 C5          10.7060    18.0650    20.3520 ca         1 M4U      -0.135300
      5 C6           9.9370    16.9880    20.7670 ca         1 M4U      -0.074000
      6 C7          10.6030    17.0000    24.5180 c6         1 M4U      -0.056100
      7 C8          11.9630    17.3200    25.1010 c6         1 M4U       0.104000
      8 C10          9.0690    15.4270    22.4680 cd         1 M4U      -0.174300
      9 C13         14.5260    18.6720    25.9450 ca         1 M4U      -0.044300
     10 C15          9.4390    14.1200    22.2390 cc         1 M4U      -0.133300
     11 C17         14.0780    17.2620    17.9120 cc         1 M4U       0.296200
     12 C22         14.9640    18.2750    27.1910 ca         1 M4U      -0.218500
     13 C24         16.9930    17.4100    26.2090 ca         1 M4U      -0.254000
     14 C26         15.3100    18.4500    24.8090 ca         1 M4U      -0.218500
     15 C1           9.8560    16.6220    22.1100 ca         1 M4U      -0.023000
     16 C11         10.8300    18.4100    18.8910 c3         1 M4U       0.093600
     17 C12         13.1850    19.3520    25.8050 c3         1 M4U       0.137300
     18 C14          7.7960    15.2980    23.0530 cd         1 M4U       0.207600
     19 C16         13.0730    19.1490    18.0050 cd         1 M4U       0.409800
     20 C18         12.8210    16.9950    18.3640 cd         1 M4U      -0.263600
     21 C2          10.5780    17.3440    23.0610 ca         1 M4U      -0.005300
     22 C23         16.2090    17.6460    27.3260 ca         1 M4U       0.175600
     23 C25         16.5360    17.8150    24.9480 ca         1 M4U       0.175600
     24 C3          11.3390    18.4400    22.6450 ca         1 M4U      -0.154600
     25 C9          12.1220    19.2590    23.6190 c          1 M4U       0.721100
     26 N2          12.1850    18.2070    18.4150 na         1 M4U      -0.190900
     27 N4           8.4350    13.3370    22.6720 na         1 M4U       0.133400
     28 N5          14.2230    18.6030    17.6910 nc         1 M4U      -0.676000
     29 O1          12.5390    20.3670    23.3060 o          1 M4U      -0.637500
     30 O2          16.5570    17.2970    28.5770 os         1 M4U      -0.319900
     31 O3          17.3660    17.5410    23.9240 os         1 M4U      -0.319900
     32 H1          11.9950    19.6500    21.0100 ha         1 M4U       0.161000
     33 H2           9.3920    16.4060    20.0330 ha         1 M4U       0.136000
     34 H3           9.8380    17.5700    25.0520 hc         1 M4U       0.073200
     35 H4          10.3800    15.9450    24.6750 hc         1 M4U       0.073200
     36 H5          11.9410    17.1860    26.1830 h1         1 M4U       0.052200
     37 H6          12.7210    16.6350    24.7070 h1         1 M4U       0.052200
     38 H7          10.3410    13.7130    21.8100 h4         1 M4U       0.183000
     39 H8          14.8810    16.5630    17.7330 h4         1 M4U       0.035100
     40 H9          13.6430    21.1300    17.5670 hc         1 M4U       0.055367
     41 H10         11.9460    20.8040    17.2230 hc         1 M4U       0.055367
     42 H11         12.4810    21.0210    18.8860 hc         1 M4U       0.055367
     43 H12         14.3510    18.4390    28.0690 ha         1 M4U       0.146500
     44 H13         17.9540    16.9180    26.2750 ha         1 M4U       0.149000
     45 H14         14.9540    18.7760    23.8410 ha         1 M4U       0.146500
     46 H15         17.7730    17.5850    21.9550 h1         1 M4U       0.043200
     47 H16         16.0470    17.4090    22.3140 h1         1 M4U       0.043200
     48 H17         16.8430    18.9850    22.5140 h1         1 M4U       0.043200
     49 H18         10.5590    19.4510    18.7160 h1         1 M4U       0.068700
     50 H19         10.1490    17.7990    18.2970 h1         1 M4U       0.068700
     51 H20         13.3180    20.3920    25.5090 h1         1 M4U       0.073200
     52 H21         12.6700    19.3540    26.7690 h1         1 M4U       0.073200
     53 H22         12.3320    16.0780    18.6490 h4         1 M4U       0.171000
     54 H23          7.4760    11.5690    23.1340 h1         1 M4U       0.066367
     55 H24          8.3310    11.5550    21.5820 h1         1 M4U       0.066367
     56 H25          9.2440    11.4590    23.1000 h1         1 M4U       0.066367
     57 H26         17.8410    16.4090    29.8460 h1         1 M4U       0.043200
     58 H27         17.7980    15.6580    28.2400 h1         1 M4U       0.043200
     59 H28         18.6380    17.2060    28.4780 h1         1 M4U       0.043200
     60 C20          6.8450    16.3660    23.4530 c3         1 M4U       0.659600
     61 C19          8.3730    11.8930    22.6150 c3         1 M4U       0.034600
     62 C21         12.7610    20.6000    17.9190 c3         1 M4U      -0.125400
     63 C28         16.9730    17.9050    22.6170 c3         1 M4U       0.124200
     64 C27         17.7730    16.6090    28.7790 c3         1 M4U       0.124200
     65 F1           6.1820    16.8620    22.3970 f          1 M4U      -0.227633
     66 F2           7.4680    17.4020    24.0270 f          1 M4U      -0.227633
     67 F3           5.9310    15.9180    24.3160 f          1 M4U      -0.227633
@<TRIPOS>BOND
     1     1     7 1   
     2     1    17 1   
     3     1    25 1   
     4     2    18 2   
     5     2    27 1   
     6     3     4 ar  
     7     3    24 ar  
     8     3    32 1   
     9     4     5 ar  
    10     4    16 1   
    11     5    15 ar  
    12     5    33 1   
    13     6     7 1   
    14     6    21 1   
    15     6    34 1   
    16     6    35 1   
    17     7    36 1   
    18     7    37 1   
    19     8    10 2   
    20     8    15 1   
    21     8    18 1   
    22     9    12 ar  
    23     9    14 ar  
    24     9    17 1   
    25    10    27 1   
    26    10    38 1   
    27    11    20 2   
    28    11    28 1   
    29    11    39 1   
    30    12    22 ar  
    31    12    43 1   
    32    13    22 ar  
    33    13    23 ar  
    34    13    44 1   
    35    14    23 ar  
    36    14    45 1   
    37    15    21 ar  
    38    16    26 1   
    39    16    49 1   
    40    16    50 1   
    41    17    51 1   
    42    17    52 1   
    43    18    60 1   
    44    19    26 1   
    45    19    28 2   
    46    19    62 1   
    47    20    26 1   
    48    20    53 1   
    49    21    24 ar  
    50    22    30 1   
    51    23    31 1   
    52    24    25 1   
    53    25    29 2   
    54    27    61 1   
    55    30    64 1   
    56    31    63 1   
    57    40    62 1   
    58    41    62 1   
    59    42    62 1   
    60    46    63 1   
    61    47    63 1   
    62    48    63 1   
    63    54    61 1   
    64    55    61 1   
    65    56    61 1   
    66    57    64 1   
    67    58    64 1   
    68    59    64 1   
    69    60    65 1   
    70    60    66 1   
    71    60    67 1   
@<TRIPOS>SUBSTRUCTURE
     1 M4U         1 TEMP              0 ****  ****    0 ROOT
