@<TRIPOS>MOLECULE
M4V
   37    40     1     0     0
SMALL
abcg2


@<TRIPOS>ATOM
      1 NAA        -27.3600   -10.5670    23.7310 nv         1 M4V      -1.037200
      2 OAB        -25.7080   -14.6220    25.1080 o          1 M4V      -0.539000
      3 CAD        -21.7220   -17.7430    24.9000 ca         1 M4V      -0.106000
      4 CAE        -22.1860   -16.7930    25.8060 ca         1 M4V      -0.115500
      5 CAF        -21.6880   -17.4370    23.5420 ca         1 M4V      -0.115500
      6 CAG        -22.6070   -15.5460    25.3590 ca         1 M4V      -0.085000
      7 CAH        -22.1110   -16.1910    23.0960 ca         1 M4V      -0.085000
      8 CAI        -19.3370   -12.6690    20.3740 ca         1 M4V      -0.082500
      9 CAJ        -18.6030   -13.8380    22.3600 ca         1 M4V      -0.082500
     10 CAK        -20.6210   -12.6040    20.8980 ca         1 M4V      -0.102000
     11 CAL        -19.8880   -13.7600    22.8750 ca         1 M4V      -0.102000
     12 NAM        -25.2120   -11.0850    23.0450 nc         1 M4V      -0.717100
     13 NAN        -26.4180   -12.5800    24.4030 ns         1 M4V      -0.457400
     14 NAO        -23.0560   -11.9260    22.4400 na         1 M4V      -0.110000
     15 CAP        -18.3400   -13.2890    21.1120 ca         1 M4V      -0.010900
     16 CAQ        -26.2930   -11.4000    23.7230 cd         1 M4V       0.729800
     17 CAR        -20.9220   -13.1470    22.1550 ca         1 M4V       0.001000
     18 CAS        -22.5700   -15.2250    23.9980 ca         1 M4V      -0.022000
     19 CAT        -22.2710   -13.0480    22.7040 cc         1 M4V      -0.122000
     20 CAU        -22.9940   -13.8970    23.5240 cd         1 M4V       0.011000
     21 CAV        -25.4440   -13.5950    24.4810 c          1 M4V       0.619600
     22 CAW        -24.2420   -12.0230    23.0870 cc         1 M4V       0.179400
     23 CAX        -24.2520   -13.2460    23.7780 cd         1 M4V      -0.295600
     24 HNAA       -27.2020    -9.6320    23.3880 hn         1 M4V       0.496500
     25 HNAB       -28.0680   -10.6680    24.4410 hn         1 M4V       0.496500
     26 HAD        -21.3940   -18.7140    25.2480 ha         1 M4V       0.111000
     27 HAE        -22.2170   -17.0220    26.8640 ha         1 M4V       0.112000
     28 HAF        -21.3360   -18.1710    22.8280 ha         1 M4V       0.112000
     29 HAG        -22.9640   -14.8100    26.0670 ha         1 M4V       0.118000
     30 HAH        -22.0870   -15.9590    22.0400 ha         1 M4V       0.118000
     31 HAI        -19.1250   -12.2480    19.4010 ha         1 M4V       0.131500
     32 HAJ        -17.8150   -14.3090    22.9310 ha         1 M4V       0.131500
     33 HAK        -21.4000   -12.1370    20.3090 ha         1 M4V       0.123500
     34 HAL        -20.0850   -14.1680    23.8560 ha         1 M4V       0.123500
     35 HNAN       -27.2850   -12.7820    24.8830 hn         1 M4V       0.323500
     36 HNAO       -22.7530   -11.1110    21.9290 hn         1 M4V       0.361000
     37 BR         -16.5630   -13.3770    20.4020 br         1 M4V      -0.109100
@<TRIPOS>BOND
     1     1    16 1   
     2     1    24 1   
     3     1    25 1   
     4     2    21 2   
     5     3     4 ar  
     6     3     5 ar  
     7     3    26 1   
     8     4     6 ar  
     9     4    27 1   
    10     5     7 ar  
    11     5    28 1   
    12     6    18 ar  
    13     6    29 1   
    14     7    18 ar  
    15     7    30 1   
    16     8    10 ar  
    17     8    15 ar  
    18     8    31 1   
    19     9    11 ar  
    20     9    15 ar  
    21     9    32 1   
    22    10    17 ar  
    23    10    33 1   
    24    11    17 ar  
    25    11    34 1   
    26    12    16 2   
    27    12    22 1   
    28    13    16 1   
    29    13    21 1   
    30    13    35 1   
    31    14    19 1   
    32    14    22 1   
    33    14    36 1   
    34    15    37 1   
    35    17    19 1   
    36    18    20 1   
    37    19    20 2   
    38    20    23 1   
    39    21    23 1   
    40    22    23 2   
@<TRIPOS>SUBSTRUCTURE
     1 M4V         1 TEMP              0 ****  ****    0 ROOT
