@<TRIPOS>MOLECULE
M4V
   37    40     1     0     0
SMALL
No Charge or Current Charge


@<TRIPOS>ATOM
      1 NAA        -27.3860   -10.6780    23.8750 nv         1 M4V      -1.037200
      2 OAB        -25.5830   -14.6460    25.0670 o          1 M4V      -0.539000
      3 CAD        -21.7240   -17.6820    24.7640 ca         1 M4V      -0.106000
      4 CAE        -22.3710   -16.8320    25.6730 ca         1 M4V      -0.115500
      5 CAF        -21.4840   -17.2450    23.4520 ca         1 M4V      -0.115500
      6 CAG        -22.7800   -15.5480    25.2700 ca         1 M4V      -0.085000
      7 CAH        -21.8920   -15.9610    23.0510 ca         1 M4V      -0.085000
      8 CAI        -19.3490   -13.0390    20.2970 ca         1 M4V      -0.082500
      9 CAJ        -18.6030   -13.7640    22.4970 ca         1 M4V      -0.082500
     10 CAK        -20.6470   -12.8450    20.8010 ca         1 M4V      -0.102000
     11 CAL        -19.9010   -13.5690    22.9990 ca         1 M4V      -0.102000
     12 NAM        -25.3300   -11.0480    23.1230 nc         1 M4V      -0.717100
     13 NAN        -26.4340   -12.6530    24.4790 ns         1 M4V      -0.457400
     14 NAO        -23.0820   -11.7820    22.4310 na         1 M4V      -0.110000
     15 CAP        -18.3290   -13.5020    21.1450 ca         1 M4V      -0.010900
     16 CAQ        -26.3400   -11.4840    23.8290 cd         1 M4V       0.729800
     17 CAR        -20.9370   -13.1220    22.1520 ca         1 M4V       0.001000
     18 CAS        -22.5510   -15.0970    23.9540 ca         1 M4V      -0.022000
     19 CAT        -22.2890   -12.9010    22.6660 cc         1 M4V      -0.122000
     20 CAU        -22.9670   -13.7360    23.5390 cd         1 M4V       0.011000
     21 CAV        -25.4400   -13.5740    24.5060 c          1 M4V       0.619600
     22 CAW        -24.2690   -11.9170    23.1180 cc         1 M4V       0.179400
     23 CAX        -24.2370   -13.1160    23.7750 cd         1 M4V      -0.295600
     24 HNAA       -27.1890    -9.7500    23.5230 hn         1 M4V       0.496500
     25 HNAB       -27.9570   -10.7090    24.7100 hn         1 M4V       0.496500
     26 HAD        -21.4070   -18.6750    25.0750 ha         1 M4V       0.111000
     27 HAE        -22.5490   -17.1620    26.6940 ha         1 M4V       0.112000
     28 HAF        -20.9840   -17.9020    22.7430 ha         1 M4V       0.112000
     29 HAG        -23.2450   -14.8900    25.9980 ha         1 M4V       0.118000
     30 HAH        -21.7140   -15.6500    22.0250 ha         1 M4V       0.118000
     31 HAI        -19.1350   -12.8320    19.2510 ha         1 M4V       0.131500
     32 HAJ        -17.8120   -14.1150    23.1550 ha         1 M4V       0.131500
     33 HAK        -21.4320   -12.4920    20.1370 ha         1 M4V       0.123500
     34 HAL        -20.1010   -13.7630    24.0500 ha         1 M4V       0.123500
     35 HNAN       -27.2880   -12.9030    24.9480 hn         1 M4V       0.323500
     36 HNAO       -22.8370   -10.9870    21.8540 hn         1 M4V       0.361000
     37 Br         -16.5640   -13.7670    20.4590 br         1 M4V      -0.109100
@<TRIPOS>BOND
     1     1    16 1   
     2     1    24 1   
     3     1    25 1   
     4     2    21 2   
     5     3     4 ar  
     6     3     5 ar  
     7     3    26 1   
     8     4     6 ar  
     9     4    27 1   
    10     5     7 ar  
    11     5    28 1   
    12     6    18 ar  
    13     6    29 1   
    14     7    18 ar  
    15     7    30 1   
    16     8    10 ar  
    17     8    15 ar  
    18     8    31 1   
    19     9    11 ar  
    20     9    15 ar  
    21     9    32 1   
    22    10    17 ar  
    23    10    33 1   
    24    11    17 ar  
    25    11    34 1   
    26    12    16 2   
    27    12    22 1   
    28    13    16 1   
    29    13    21 1   
    30    13    35 1   
    31    14    19 1   
    32    14    22 1   
    33    14    36 1   
    34    15    37 1   
    35    17    19 1   
    36    18    20 1   
    37    19    20 2   
    38    20    23 1   
    39    21    23 1   
    40    22    23 2   
@<TRIPOS>SUBSTRUCTURE
     1 M4V         1 TEMP              0 ****  ****    0 ROOT
