@<TRIPOS>MOLECULE
M4X
   23    24     1     0     0
SMALL
No Charge or Current Charge


@<TRIPOS>ATOM
      1 N1           0.0340    18.4040    59.6430 ns         1 M4X      -0.502900
      2 N3           3.6200    20.2820    61.7360 na         1 M4X       0.324400
      3 C4           1.5570    20.2560    61.2390 cc         1 M4X       0.405500
      4 C5           4.8690    20.6240    62.2560 cc         1 M4X      -0.079000
      5 C6           5.9190    19.7600    61.9210 cd         1 M4X      -0.130000
      6 C7           5.7700    18.5760    61.0930 cd         1 M4X       0.005000
      7 C8           6.8830    17.7420    60.7930 ch         1 M4X       0.318000
      8 C10          3.4230    19.1630    60.9400 cd         1 M4X      -0.046000
      9 C1          -0.8890    17.5700    58.8700 c3         1 M4X       0.097300
     10 C2           1.3760    18.1440    59.7820 c          1 M4X       0.650300
     11 O1           1.9000    17.1760    59.2540 o          1 M4X      -0.618100
     12 C3           2.1000    19.1260    60.6080 cc         1 M4X      -0.362800
     13 N2           2.4310    20.9760    61.9250 nd         1 M4X      -0.572100
     14 N4           7.7810    17.0420    60.5320 n1         1 M4X      -0.429000
     15 C9           4.4680    18.2700    60.5850 cd         1 M4X      -0.034000
     16 H4          -0.3320    19.2240    60.1080 hn         1 M4X       0.315500
     17 H5           0.5270    20.5890    61.2230 h4         1 M4X       0.046800
     18 H6           4.9340    21.5130    62.8670 h4         1 M4X       0.167000
     19 H7           6.9060    19.9960    62.3090 ha         1 M4X       0.147000
     20 H1          -1.8990    17.9970    58.9200 h1         1 M4X       0.040700
     21 H2          -0.5640    17.5330    57.8220 h1         1 M4X       0.040700
     22 H3          -0.9050    16.5540    59.2840 h1         1 M4X       0.040700
     23 H8           4.2990    17.3990    59.9620 ha         1 M4X       0.174000
@<TRIPOS>BOND
     1     1     9 1   
     2     1    10 1   
     3     1    16 1   
     4     2     4 1   
     5     2     8 1   
     6     2    13 1   
     7     3    12 1   
     8     3    13 2   
     9     3    17 1   
    10     4     5 2   
    11     4    18 1   
    12     5     6 1   
    13     5    19 1   
    14     6     7 1   
    15     6    15 2   
    16     7    14 3   
    17     8    12 2   
    18     8    15 1   
    19     9    20 1   
    20     9    21 1   
    21     9    22 1   
    22    10    11 2   
    23    10    12 1   
    24    15    23 1   
@<TRIPOS>SUBSTRUCTURE
     1 M4X         1 TEMP              0 ****  ****    0 ROOT
