@<TRIPOS>MOLECULE
M4X
   23    24     1     0     0
SMALL
bcc


@<TRIPOS>ATOM
      1 N1           0.0200    18.4500    59.5770 ns         1 M4X      -0.569900
      2 N3           3.6340    20.2130    61.7460 na         1 M4X       0.223000
      3 C4           1.5650    20.2760    61.3800 cc         1 M4X       0.405500
      4 C5           4.8690    20.5450    62.2050 cc         1 M4X      -0.046300
      5 C6           5.9260    19.7650    61.8780 cd         1 M4X      -0.148000
      6 C7           5.7190    18.6190    61.0610 cd         1 M4X       0.005000
      7 C8           6.8360    17.8020    60.7120 ch         1 M4X       0.228800
      8 C10          3.3880    19.1110    60.9580 cd         1 M4X       0.004700
      9 C1          -0.8130    17.5550    58.8100 c3         1 M4X       0.097300
     10 C2           1.2840    18.1430    59.9030 c          1 M4X       0.717300
     11 O1           1.8140    17.0900    59.5590 o          1 M4X      -0.618100
     12 C3           2.0150    19.1370    60.7010 cc         1 M4X      -0.362800
     13 N2           2.5360    20.9170    62.0060 nd         1 M4X      -0.572100
     14 N4           7.7430    17.1500    60.4310 n1         1 M4X      -0.339800
     15 C9           4.4700    18.2880    60.6050 cd         1 M4X      -0.052000
     16 H4          -0.3610    19.3480    59.8240 hn         1 M4X       0.315500
     17 H5           0.5560    20.6560    61.4530 h4         1 M4X       0.046800
     18 H6           4.9320    21.4310    62.8180 h4         1 M4X       0.185000
     19 H7           6.9110    20.0210    62.2370 ha         1 M4X       0.165000
     20 H1          -1.7750    18.0350    58.6530 h1         1 M4X       0.040700
     21 H2          -0.3790    17.3320    57.8350 h1         1 M4X       0.040700
     22 H3          -0.9820    16.6130    59.3340 h1         1 M4X       0.040700
     23 H8           4.2990    17.4210    59.9860 ha         1 M4X       0.192000
@<TRIPOS>BOND
     1     1     9 1   
     2     1    10 1   
     3     1    16 1   
     4     2     4 1   
     5     2     8 1   
     6     2    13 1   
     7     3    12 1   
     8     3    13 2   
     9     3    17 1   
    10     4     5 2   
    11     4    18 1   
    12     5     6 1   
    13     5    19 1   
    14     6     7 1   
    15     6    15 2   
    16     7    14 3   
    17     8    12 2   
    18     8    15 1   
    19     9    20 1   
    20     9    21 1   
    21     9    22 1   
    22    10    11 2   
    23    10    12 1   
    24    15    23 1   
@<TRIPOS>SUBSTRUCTURE
     1 M4X         1 TEMP              0 ****  ****    0 ROOT
