@<TRIPOS>MOLECULE
M4Y
   38    40     1     0     0
SMALL
No Charge or Current Charge


@<TRIPOS>ATOM
      1 C11          5.7760    11.5740     5.0230 ce         1 M4Y      -0.239400
      2 C12          6.3300    10.3920     5.7420 c          1 M4Y       0.657300
      3 C13          4.4950    12.0020     5.1540 c2         1 M4Y      -0.218000
      4 C1           9.9430    13.2700     2.1600 c2         1 M4Y      -0.216200
      5 C10          8.8040    12.8120     1.6030 c2         1 M4Y      -0.116400
      6 C2          11.3260    12.6410     2.1360 c3         1 M4Y      -0.036200
      7 C3          11.6750    12.0210     3.5130 c3         1 M4Y      -0.063400
      8 C4          10.5800    11.0910     4.0520 cx         1 M4Y       0.113000
      9 C5           9.3730    11.7580     4.6930 cx         1 M4Y       0.086300
     10 C6           8.0240    11.0630     4.3390 c5         1 M4Y       0.189300
     11 C7           6.9210    12.1890     4.2180 c5         1 M4Y      -0.047500
     12 C8           6.4910    12.5560     2.7610 c3         1 M4Y      -0.057400
     13 C9           7.4590    13.4450     1.9290 c3         1 M4Y      -0.040200
     14 O1           7.6400    10.2180     5.4420 os         1 M4Y      -0.411100
     15 O2           5.7100     9.6800     6.5180 o          1 M4Y      -0.488000
     16 O3          10.3650    11.0420     5.4770 op         1 M4Y      -0.408000
     17 H13C         3.7760    11.4780     5.7860 ha         1 M4Y       0.180000
     18 H2           4.1250    12.8910     4.6430 ha         1 M4Y       0.180000
     19 H14B         9.6510    11.2390     0.3190 hc         1 M4Y       0.040367
     20 H14C         8.1510    10.7840     1.1210 hc         1 M4Y       0.040367
     21 H14A         8.1300    11.9000    -0.2470 hc         1 M4Y       0.040367
     22 H15B         9.9530     8.9970     3.9350 hc         1 M4Y       0.050033
     23 H15C        10.1050     9.7960     2.3590 hc         1 M4Y       0.050033
     24 H15A        11.5500     9.3110     3.2510 hc         1 M4Y       0.050033
     25 H2A         11.4150    11.8640     1.3700 hc         1 M4Y       0.050200
     26 H2B         12.0780    13.3980     1.8800 hc         1 M4Y       0.050200
     27 H3B         12.6260    11.4810     3.4300 hc         1 M4Y       0.057200
     28 H3A         11.8510    12.8340     4.2280 hc         1 M4Y       0.057200
     29 H5           9.4030    12.8380     4.8360 h1         1 M4Y       0.085700
     30 H6           8.0440    10.4560     3.4250 h1         1 M4Y       0.074700
     31 H7           7.2240    13.1240     4.7050 hc         1 M4Y       0.072700
     32 H8A          5.5460    13.1080     2.8060 hc         1 M4Y       0.047200
     33 H8B          6.2580    11.6430     2.2010 hc         1 M4Y       0.047200
     34 H9A          7.6050    14.3850     2.4760 hc         1 M4Y       0.047700
     35 H9B          6.9560    13.7280     0.9970 hc         1 M4Y       0.047700
     36 H1           9.8990    14.1450     2.8120 ha         1 M4Y       0.165000
     37 C14          8.6840    11.6210     0.6570 c3         1 M4Y      -0.055900
     38 C15         10.5410     9.7240     3.3610 c3         1 M4Y      -0.083100
@<TRIPOS>BOND
     1     1     2 1   
     2     1     3 2   
     3     1    11 1   
     4     2    14 1   
     5     2    15 2   
     6     3    17 1   
     7     3    18 1   
     8     4     5 2   
     9     4     6 1   
    10     4    36 1   
    11     5    13 1   
    12     5    37 1   
    13     6     7 1   
    14     6    25 1   
    15     6    26 1   
    16     7     8 1   
    17     7    27 1   
    18     7    28 1   
    19     8     9 1   
    20     8    16 1   
    21     8    38 1   
    22     9    10 1   
    23     9    16 1   
    24     9    29 1   
    25    10    11 1   
    26    10    14 1   
    27    10    30 1   
    28    11    12 1   
    29    11    31 1   
    30    12    13 1   
    31    12    32 1   
    32    12    33 1   
    33    13    34 1   
    34    13    35 1   
    35    19    37 1   
    36    20    37 1   
    37    21    37 1   
    38    22    38 1   
    39    23    38 1   
    40    24    38 1   
@<TRIPOS>SUBSTRUCTURE
     1 M4Y         1 TEMP              0 ****  ****    0 ROOT
