@<TRIPOS>MOLECULE
M4Y
   38    40     1     0     0
SMALL
bcc


@<TRIPOS>ATOM
      1 C11          5.8150    11.7170     5.0980 ce         1 M4Y      -0.239400
      2 C12          6.3250    10.7970     6.1370 c          1 M4Y       0.732800
      3 C13          4.5440    12.0920     5.0600 c2         1 M4Y      -0.118000
      4 C1           9.8560    13.2450     2.2940 c2         1 M4Y      -0.166200
      5 C10          8.8030    12.8040     1.6000 c2         1 M4Y      -0.116400
      6 C2          11.2620    12.7300     2.2590 c3         1 M4Y      -0.036200
      7 C3          11.6000    12.0160     3.5830 c3         1 M4Y      -0.063400
      8 C4          10.5350    11.0040     3.9340 cx         1 M4Y       0.089800
      9 C5           9.3950    11.4960     4.7090 cx         1 M4Y       0.063100
     10 C6           7.9890    10.9820     4.5600 c5         1 M4Y       0.166100
     11 C7           6.9660    12.0850     4.2020 c5         1 M4Y      -0.047500
     12 C8           6.5880    12.2420     2.7240 c3         1 M4Y      -0.057400
     13 C9           7.4160    13.2730     1.9420 c3         1 M4Y      -0.040200
     14 O1           7.5770    10.4590     5.8390 os         1 M4Y      -0.387900
     15 O2           5.7680    10.3760     7.1160 o          1 M4Y      -0.563500
     16 O3          10.3770    10.6700     5.3100 op         1 M4Y      -0.361600
     17 H13C         3.8400    11.7370     5.8010 ha         1 M4Y       0.130000
     18 H2           4.1580    12.7590     4.3010 ha         1 M4Y       0.130000
     19 H14B         9.8790    11.4930     0.2360 hc         1 M4Y       0.040367
     20 H14C         8.2810    10.9170     0.7000 hc         1 M4Y       0.040367
     21 H14A         8.4330    12.2450    -0.4280 hc         1 M4Y       0.040367
     22 H15B         9.7310     9.0730     3.3570 hc         1 M4Y       0.050033
     23 H15C        10.1160    10.1310     2.0040 hc         1 M4Y       0.050033
     24 H15A        11.4080     9.3500     2.9060 hc         1 M4Y       0.050033
     25 H2A         11.4170    12.0490     1.4200 hc         1 M4Y       0.050200
     26 H2B         11.9720    13.5500     2.1250 hc         1 M4Y       0.050200
     27 H3B         12.5770    11.5310     3.5010 hc         1 M4Y       0.057200
     28 H3A         11.6760    12.7560     4.3850 hc         1 M4Y       0.057200
     29 H5           9.4370    12.5300     5.0540 h1         1 M4Y       0.085700
     30 H6           7.9260    10.1580     3.8440 h1         1 M4Y       0.074700
     31 H7           7.3640    13.0460     4.5570 hc         1 M4Y       0.072700
     32 H8A          5.5480    12.5720     2.6750 hc         1 M4Y       0.047200
     33 H8B          6.6060    11.2690     2.2260 hc         1 M4Y       0.047200
     34 H9A          7.4590    14.1980     2.5250 hc         1 M4Y       0.047700
     35 H9B          6.8720    13.5100     1.0230 hc         1 M4Y       0.047700
     36 H1           9.6690    13.9970     3.0580 ha         1 M4Y       0.115000
     37 C14          8.8670    11.8120     0.4760 c3         1 M4Y      -0.055900
     38 C15         10.4310     9.8270     3.0000 c3         1 M4Y      -0.083100
@<TRIPOS>BOND
     1     1     2 1   
     2     1     3 2   
     3     1    11 1   
     4     2    14 1   
     5     2    15 2   
     6     3    17 1   
     7     3    18 1   
     8     4     5 2   
     9     4     6 1   
    10     4    36 1   
    11     5    13 1   
    12     5    37 1   
    13     6     7 1   
    14     6    25 1   
    15     6    26 1   
    16     7     8 1   
    17     7    27 1   
    18     7    28 1   
    19     8     9 1   
    20     8    16 1   
    21     8    38 1   
    22     9    10 1   
    23     9    16 1   
    24     9    29 1   
    25    10    11 1   
    26    10    14 1   
    27    10    30 1   
    28    11    12 1   
    29    11    31 1   
    30    12    13 1   
    31    12    32 1   
    32    12    33 1   
    33    13    34 1   
    34    13    35 1   
    35    19    37 1   
    36    20    37 1   
    37    21    37 1   
    38    22    38 1   
    39    23    38 1   
    40    24    38 1   
@<TRIPOS>SUBSTRUCTURE
     1 M4Y         1 TEMP              0 ****  ****    0 ROOT
