@<TRIPOS>MOLECULE
M4Z
   69    71     1     0     0
SMALL
bcc


@<TRIPOS>ATOM
      1 C1          -3.6750     2.2240     0.2400 c6         1 M4Z      -0.090700
      2 C2          -3.0610     3.4220     0.9640 c6         1 M4Z      -0.072900
      3 C3          -4.0280     4.6040     0.9800 c6         1 M4Z      -0.073900
      4 C4          -4.4620     4.9870    -0.4310 c6         1 M4Z      -0.075400
      5 C5          -5.0490     3.7880    -1.1690 c6         1 M4Z      -0.073900
      6 C6          -4.0740     2.6140    -1.1830 c6         1 M4Z      -0.072900
      7 N7          -3.3370    -0.2370    -0.2890 n7         1 M4Z      -0.795200
      8 C8          -2.7950     0.9560     0.3320 c3         1 M4Z       0.117500
      9 C9          -1.4150     1.1700    -0.2730 c          1 M4Z       0.698100
     10 O0          -1.2140     1.1130    -1.4800 o          1 M4Z      -0.592100
     11 N11         -0.4200     1.4450     0.5760 nj         1 M4Z      -0.471800
     12 C12          0.9870     1.5320     0.2640 cy         1 M4Z       0.019700
     13 C13          1.5260     0.2580    -0.3650 c          1 M4Z       0.663100
     14 O14          1.0550    -0.8330    -0.0840 o          1 M4Z      -0.584100
     15 N15          2.5760     0.4410    -1.1790 ns         1 M4Z      -0.563900
     16 C16          3.3380    -0.6340    -1.7720 c3         1 M4Z       0.143300
     17 C17          4.6480    -0.8830    -1.0660 ca         1 M4Z      -0.098300
     18 C22          5.8420    -0.9040    -1.7800 ca         1 M4Z      -0.127500
     19 C21          7.0500    -1.1400    -1.1420 ca         1 M4Z      -0.098000
     20 C20          7.0940    -1.3660     0.2310 ca         1 M4Z      -0.142900
     21 C19          5.8980    -1.3410     0.9480 ca         1 M4Z      -0.098000
     22 C18          4.6930    -1.1030     0.3070 ca         1 M4Z      -0.127500
     23 C23          8.4050    -1.6010     0.8970 ce         1 M4Z       0.661800
     24 N24          9.4640    -1.1510     0.3400 n2         1 M4Z      -0.829100
     25 N25          8.3430    -2.2450     2.0990 nv         1 M4Z      -0.968800
     26 C26          1.2660     1.6090     1.7890 cy         1 M4Z      -0.101400
     27 C27         -0.2400     1.3890     2.0220 cy         1 M4Z       0.108000
     28 C28         -4.6240    -0.6460     0.2160 c3         1 M4Z       0.089800
     29 C10         -7.5260    -4.4370     0.7420 c3         1 M4Z      -0.112100
     30 C29         -5.0690    -1.9310    -0.4590 c          1 M4Z       0.665100
     31 O30         -4.7470    -2.2020    -1.6090 o          1 M4Z      -0.594100
     32 C24         -6.4620    -3.9380    -0.2170 c3         1 M4Z       0.107000
     33 N3          -5.8730    -2.7080     0.2770 ns         1 M4Z      -0.579900
     34 H1          -4.5980     1.9760     0.7820 hc         1 M4Z       0.041700
     35 H21C        -2.7960     3.1470     1.9880 hc         1 M4Z       0.046700
     36 H22C        -2.1320     3.7250     0.4680 hc         1 M4Z       0.046700
     37 H61C        -3.1840     2.8930    -1.7550 hc         1 M4Z       0.046700
     38 H62C        -4.5280     1.7670    -1.7060 hc         1 M4Z       0.046700
     39 H8          -2.6810     0.7370     1.4000 h1         1 M4Z       0.058700
     40 H31C        -4.9110     4.3340     1.5700 hc         1 M4Z       0.037950
     41 H32C        -3.5670     5.4570     1.4820 hc         1 M4Z       0.037950
     42 H41C        -5.1870     5.8040    -0.3950 hc         1 M4Z       0.040200
     43 H42C        -3.5960     5.3630    -0.9870 hc         1 M4Z       0.040200
     44 H51C        -5.9800     3.4810    -0.6800 hc         1 M4Z       0.037950
     45 H52C        -5.3140     4.0660    -2.1920 hc         1 M4Z       0.037950
     46 H7          -3.3770    -0.1250    -1.2940 hn         1 M4Z       0.404800
     47 H281        -4.5570    -0.7890     1.2980 h1         1 M4Z       0.040200
     48 H282        -5.4310     0.0870     0.0570 h1         1 M4Z       0.040200
     49 H12          1.2710     2.4220    -0.3040 h1         1 M4Z       0.077700
     50 H271        -0.7510     2.1810     2.5700 h1         1 M4Z       0.056700
     51 H272        -0.5000     0.4230     2.4590 h1         1 M4Z       0.056700
     52 H261         1.9170     0.8330     2.1870 hc         1 M4Z       0.066700
     53 H262         1.6290     2.5820     2.1100 hc         1 M4Z       0.066700
     54 H15          2.9130     1.3790    -1.3270 hn         1 M4Z       0.314500
     55 H161         2.7250    -1.5350    -1.7540 h1         1 M4Z       0.070700
     56 H162         3.5220    -0.3960    -2.8200 h1         1 M4Z       0.070700
     57 H18          3.7820    -1.0970     0.8940 ha         1 M4Z       0.136500
     58 H22          5.8300    -0.7340    -2.8500 ha         1 M4Z       0.136500
     59 H19          5.8960    -1.4880     2.0200 ha         1 M4Z       0.145000
     60 H21          7.9680    -1.1480    -1.7130 ha         1 M4Z       0.145000
     61 H24         10.2920    -1.3980     0.8740 hn         1 M4Z       0.370400
     62 H251         7.5870    -2.8890     2.2650 hn         1 M4Z       0.407300
     63 H252         9.2140    -2.5270     2.5200 hn         1 M4Z       0.407300
     64 H101        -8.3330    -3.7130     0.8520 hc         1 M4Z       0.041033
     65 H102        -7.9570    -5.3660     0.3690 hc         1 M4Z       0.041033
     66 H103        -7.1100    -4.6390     1.7300 hc         1 M4Z       0.041033
     67 H241        -5.6890    -4.7010    -0.3460 h1         1 M4Z       0.052700
     68 H242        -6.8990    -3.7590    -1.2000 h1         1 M4Z       0.052700
     69 H3          -6.0460    -2.4540     1.2360 hn         1 M4Z       0.309500
@<TRIPOS>BOND
     1     1     2 1   
     2     1     6 1   
     3     1     8 1   
     4     1    34 1   
     5     2     3 1   
     6     2    35 1   
     7     2    36 1   
     8     3     4 1   
     9     3    40 1   
    10     3    41 1   
    11     4     5 1   
    12     4    42 1   
    13     4    43 1   
    14     5     6 1   
    15     5    44 1   
    16     5    45 1   
    17     6    37 1   
    18     6    38 1   
    19     7     8 1   
    20     7    28 1   
    21     7    46 1   
    22     8     9 1   
    23     8    39 1   
    24     9    10 2   
    25     9    11 1   
    26    11    12 1   
    27    11    27 1   
    28    12    13 1   
    29    12    26 1   
    30    12    49 1   
    31    13    14 2   
    32    13    15 1   
    33    15    16 1   
    34    15    54 1   
    35    16    17 1   
    36    16    55 1   
    37    16    56 1   
    38    17    18 ar  
    39    17    22 ar  
    40    18    19 ar  
    41    18    58 1   
    42    19    20 ar  
    43    19    60 1   
    44    20    21 ar  
    45    20    23 1   
    46    21    22 ar  
    47    21    59 1   
    48    22    57 1   
    49    23    24 2   
    50    23    25 1   
    51    24    61 1   
    52    25    62 1   
    53    25    63 1   
    54    26    27 1   
    55    26    52 1   
    56    26    53 1   
    57    27    50 1   
    58    27    51 1   
    59    28    30 1   
    60    28    47 1   
    61    28    48 1   
    62    29    32 1   
    63    29    64 1   
    64    29    65 1   
    65    29    66 1   
    66    30    31 2   
    67    30    33 1   
    68    32    33 1   
    69    32    67 1   
    70    32    68 1   
    71    33    69 1   
@<TRIPOS>SUBSTRUCTURE
     1 M4Z         1 TEMP              0 ****  ****    0 ROOT
