@<TRIPOS>MOLECULE
M4Z
   69    71     1     0     0
SMALL
No Charge or Current Charge


@<TRIPOS>ATOM
      1 C1          -3.7360     2.4220     0.0540 c6         1 M4Z      -0.090700
      2 C2          -3.2510     3.7850     0.6310 c6         1 M4Z      -0.072900
      3 C3          -4.3090     4.8970     0.4230 c6         1 M4Z      -0.073900
      4 C4          -4.6780     5.0430    -1.0730 c6         1 M4Z      -0.075400
      5 C5          -5.1580     3.6960    -1.6640 c6         1 M4Z      -0.073900
      6 C6          -4.1030     2.5810    -1.4540 c6         1 M4Z      -0.072900
      7 N7          -3.1930    -0.0790    -0.1420 n7         1 M4Z      -0.850400
      8 C8          -2.7140     1.2590     0.3480 c3         1 M4Z       0.117500
      9 C9          -1.2370     1.5880    -0.1350 c          1 M4Z       0.631100
     10 O0          -1.0150     1.4980    -1.3420 o          1 M4Z      -0.592100
     11 N11         -0.3720     2.0600     0.9140 nj         1 M4Z      -0.404800
     12 C12          1.0140     1.9240     0.3270 cy         1 M4Z       0.019700
     13 C13          1.5800     0.6830    -0.5240 c          1 M4Z       0.596100
     14 O14          1.1880    -0.4710    -0.6690 o          1 M4Z      -0.584100
     15 N15          2.7340     1.0740    -1.1760 ns         1 M4Z      -0.496900
     16 C16          3.5790     0.1980    -1.9910 c3         1 M4Z       0.143300
     17 C17          4.6850    -0.4310    -1.1560 ca         1 M4Z      -0.098300
     18 C22          5.9200     0.2240    -1.0020 ca         1 M4Z      -0.109500
     19 C21          6.9390    -0.3520    -0.2230 ca         1 M4Z      -0.080000
     20 C20          6.7510    -1.6030     0.4080 ca         1 M4Z      -0.142900
     21 C19          5.4950    -2.2420     0.2670 ca         1 M4Z      -0.080000
     22 C18          4.4780    -1.6630    -0.5120 ca         1 M4Z      -0.109500
     23 C23          7.8360    -2.1920     1.2630 ce         1 M4Z       0.661800
     24 N24          8.8160    -1.5200     1.7080 n2         1 M4Z      -0.829100
     25 N25          7.8250    -3.5250     1.4800 nv         1 M4Z      -1.079200
     26 C26          1.3350     1.2000     1.7080 cy         1 M4Z      -0.101400
     27 C27         -0.1970     0.8420     1.7620 cy         1 M4Z       0.108000
     28 C28         -4.4810    -0.6110     0.4160 c3         1 M4Z       0.089800
     29 C10         -6.8590    -4.7510     1.6340 c3         1 M4Z      -0.112100
     30 C29         -4.9050    -2.0110    -0.1360 c          1 M4Z       0.598100
     31 O30         -4.6390    -2.3940    -1.2710 o          1 M4Z      -0.594100
     32 C24         -6.1100    -4.1400     0.4390 c3         1 M4Z       0.107000
     33 N3          -5.6150    -2.7990     0.7460 ns         1 M4Z      -0.512900
     34 H1          -4.6550     2.1610     0.5960 hc         1 M4Z       0.041700
     35 H21C        -3.0340     3.6840     1.7040 hc         1 M4Z       0.046700
     36 H22C        -2.3120     4.0920     0.1510 hc         1 M4Z       0.046700
     37 H61C        -3.2070     2.8210    -2.0410 hc         1 M4Z       0.046700
     38 H62C        -4.4960     1.6380    -1.8570 hc         1 M4Z       0.046700
     39 H8          -2.6730     1.2100     1.4440 h1         1 M4Z       0.058700
     40 H31C        -5.2110     4.6650     1.0060 hc         1 M4Z       0.037950
     41 H32C        -3.9260     5.8520     0.8070 hc         1 M4Z       0.037950
     42 H41C        -5.4620     5.8030    -1.1920 hc         1 M4Z       0.040200
     43 H42C        -3.8060     5.4050    -1.6360 hc         1 M4Z       0.040200
     44 H51C        -6.1060     3.4010    -1.1910 hc         1 M4Z       0.037950
     45 H52C        -5.3680     3.8130    -2.7360 hc         1 M4Z       0.037950
     46 H7          -3.2550    -0.0530    -1.1700 hn         1 M4Z       0.460000
     47 H281        -4.4060    -0.6920     1.5080 h1         1 M4Z       0.040200
     48 H282        -5.3150     0.0680     0.1980 h1         1 M4Z       0.040200
     49 H12          1.5390     2.8740     0.1840 h1         1 M4Z       0.077700
     50 H271        -0.6460     0.9290     2.7580 h1         1 M4Z       0.056700
     51 H272        -0.4620    -0.1140     1.2930 h1         1 M4Z       0.056700
     52 H261         2.0310     0.3530     1.7480 hc         1 M4Z       0.066700
     53 H262         1.6400     1.8980     2.4960 hc         1 M4Z       0.066700
     54 H15          3.0370     2.0310    -1.0370 hn         1 M4Z       0.314500
     55 H161         2.9680    -0.5860    -2.4590 h1         1 M4Z       0.070700
     56 H162         4.0220     0.7920    -2.8020 h1         1 M4Z       0.070700
     57 H18          3.5210    -2.1720    -0.6070 ha         1 M4Z       0.118500
     58 H22          6.0920     1.1850    -1.4830 ha         1 M4Z       0.118500
     59 H19          5.2910    -3.1850     0.7690 ha         1 M4Z       0.127000
     60 H21          7.8840     0.1780    -0.1190 ha         1 M4Z       0.127000
     61 H24          9.2930    -2.0890     2.4160 hn         1 M4Z       0.370400
     62 H251         7.2170    -4.0500     0.8620 hn         1 M4Z       0.462500
     63 H252         8.7240    -3.9550     1.6620 hn         1 M4Z       0.462500
     64 H101        -7.7230    -4.1330     1.9070 hc         1 M4Z       0.041033
     65 H102        -7.2210    -5.7550     1.3810 hc         1 M4Z       0.041033
     66 H103        -6.1990    -4.8330     2.5050 hc         1 M4Z       0.041033
     67 H241        -5.2600    -4.7820     0.1720 h1         1 M4Z       0.052700
     68 H242        -6.7840    -4.0820    -0.4260 h1         1 M4Z       0.052700
     69 H3          -5.7950    -2.4130     1.6660 hn         1 M4Z       0.309500
@<TRIPOS>BOND
     1     1     2 1   
     2     1     6 1   
     3     1     8 1   
     4     1    34 1   
     5     2     3 1   
     6     2    35 1   
     7     2    36 1   
     8     3     4 1   
     9     3    40 1   
    10     3    41 1   
    11     4     5 1   
    12     4    42 1   
    13     4    43 1   
    14     5     6 1   
    15     5    44 1   
    16     5    45 1   
    17     6    37 1   
    18     6    38 1   
    19     7     8 1   
    20     7    28 1   
    21     7    46 1   
    22     8     9 1   
    23     8    39 1   
    24     9    10 2   
    25     9    11 1   
    26    11    12 1   
    27    11    27 1   
    28    12    13 1   
    29    12    26 1   
    30    12    49 1   
    31    13    14 2   
    32    13    15 1   
    33    15    16 1   
    34    15    54 1   
    35    16    17 1   
    36    16    55 1   
    37    16    56 1   
    38    17    18 ar  
    39    17    22 ar  
    40    18    19 ar  
    41    18    58 1   
    42    19    20 ar  
    43    19    60 1   
    44    20    21 ar  
    45    20    23 1   
    46    21    22 ar  
    47    21    59 1   
    48    22    57 1   
    49    23    24 2   
    50    23    25 1   
    51    24    61 1   
    52    25    62 1   
    53    25    63 1   
    54    26    27 1   
    55    26    52 1   
    56    26    53 1   
    57    27    50 1   
    58    27    51 1   
    59    28    30 1   
    60    28    47 1   
    61    28    48 1   
    62    29    32 1   
    63    29    64 1   
    64    29    65 1   
    65    29    66 1   
    66    30    31 2   
    67    30    33 1   
    68    32    33 1   
    69    32    67 1   
    70    32    68 1   
    71    33    69 1   
@<TRIPOS>SUBSTRUCTURE
     1 M4Z         1 TEMP              0 ****  ****    0 ROOT
