@<TRIPOS>MOLECULE
M50
   30    31     1     0     0
SMALL
abcg2


@<TRIPOS>ATOM
      1 N1           7.2300     1.9020    17.7260 nb         1 M50      -0.299000
      2 C4           7.4370     0.7360    19.8170 ca         1 M50      -0.023000
      3 C5           9.5550     0.3190    21.0650 c          1 M50       0.604100
      4 C6           9.9940    -0.2520    22.4100 c3         1 M50      -0.108100
      5 C7          11.4700    -0.5230    22.4770 ca         1 M50      -0.069300
      6 C8          12.3550     0.4400    22.9580 ca         1 M50      -0.087000
      7 C10         14.2280    -1.0280    22.5480 ca         1 M50      -0.092000
      8 C11         13.3380    -1.9800    22.0730 ca         1 M50       0.126000
      9 C9          13.7220     0.1880    22.9940 ca         1 M50      -0.098000
     10 C12         11.9710    -1.7460    22.0320 ca         1 M50      -0.089000
     11 O           10.3280     0.7980    20.2550 o          1 M50      -0.546100
     12 N2           8.1960     0.2580    20.8770 ns         1 M50      -0.151000
     13 C1           6.0580     0.5160    19.8140 ca         1 M50      -0.160300
     14 C            5.3500    -0.2250    20.9060 c3         1 M50      -0.045800
     15 C3           7.9700     1.4460    18.7280 ca         1 M50       0.259900
     16 N            5.9160     1.6980    17.7140 nb         1 M50      -0.333000
     17 C2           5.3640     1.0310    18.7230 ca         1 M50       0.299900
     18 H1           9.7060     0.4780    23.1710 hc         1 M50       0.069200
     19 H2           9.4240    -1.1610    22.6120 hc         1 M50       0.069200
     20 H3          11.9710     1.3890    23.3080 ha         1 M50       0.118000
     21 H4          15.2890    -1.2340    22.5740 ha         1 M50       0.132000
     22 H5          14.4020     0.9410    23.3710 ha         1 M50       0.122000
     23 H6          11.3000    -2.5080    21.6580 ha         1 M50       0.127000
     24 H7           7.6770    -0.2030    21.6100 hn         1 M50       0.155000
     25 H8           5.7390    -1.2420    21.0060 hc         1 M50       0.047700
     26 H9           5.4800     0.2730    21.8710 hc         1 M50       0.047700
     27 H10          4.2840    -0.2870    20.6960 hc         1 M50       0.047700
     28 H11          9.0260     1.6490    18.6680 h4         1 M50       0.061100
     29 H12          4.2900     0.8950    18.6590 h4         1 M50       0.025100
     30 CL          13.9530    -3.5240    21.5110 cl         1 M50      -0.210000
@<TRIPOS>BOND
     1     1    15 ar  
     2     1    16 ar  
     3     2    12 1   
     4     2    13 ar  
     5     2    15 ar  
     6     3     4 1   
     7     3    11 2   
     8     3    12 1   
     9     4     5 1   
    10     4    18 1   
    11     4    19 1   
    12     5     6 ar  
    13     5    10 ar  
    14     6     9 ar  
    15     6    20 1   
    16     7     8 ar  
    17     7     9 ar  
    18     7    21 1   
    19     8    10 ar  
    20     8    30 1   
    21     9    22 1   
    22    10    23 1   
    23    12    24 1   
    24    13    14 1   
    25    13    17 ar  
    26    14    25 1   
    27    14    26 1   
    28    14    27 1   
    29    15    28 1   
    30    16    17 ar  
    31    17    29 1   
@<TRIPOS>SUBSTRUCTURE
     1 M50         1 TEMP              0 ****  ****    0 ROOT
