@<TRIPOS>MOLECULE
M50
   30    31     1     0     0
SMALL
No Charge or Current Charge


@<TRIPOS>ATOM
      1 N1           7.0740     2.2120    17.9030 nb         1 M50      -0.299000
      2 C4           7.6330     0.9830    19.9180 ca         1 M50      -0.023000
      3 C5           9.5520     1.4250    21.5650 c          1 M50       0.604100
      4 C6          10.0870     0.8680    22.8900 c3         1 M50      -0.108100
      5 C7          11.2620    -0.0730    22.6420 ca         1 M50      -0.069300
      6 C8          12.5780     0.4310    22.5920 ca         1 M50      -0.087000
      7 C10         13.4350    -1.8090    22.1690 ca         1 M50      -0.092000
      8 C11         12.1260    -2.3150    22.2170 ca         1 M50       0.126000
      9 C9          13.6610    -0.4340    22.3570 ca         1 M50      -0.098000
     10 C12         11.0430    -1.4520    22.4530 ca         1 M50      -0.089000
     11 O           10.1090     2.3480    20.9830 o          1 M50      -0.546100
     12 N2           8.4200     0.7800    21.0880 ns         1 M50      -0.151000
     13 C1           6.5730     0.0870    19.6330 ca         1 M50      -0.160300
     14 C            6.2510    -1.0970    20.5410 c3         1 M50      -0.045800
     15 C3           7.8460     2.0490    19.0060 ca         1 M50       0.259900
     16 N            6.0700     1.3560    17.6360 nb         1 M50      -0.333000
     17 C2           5.8120     0.3170    18.4660 ca         1 M50       0.299900
     18 H1          10.4130     1.7060    23.5170 hc         1 M50       0.069200
     19 H2           9.2930     0.3170    23.4080 hc         1 M50       0.069200
     20 H3          12.7620     1.4940    22.7330 ha         1 M50       0.118000
     21 H4          14.2700    -2.4800    21.9870 ha         1 M50       0.132000
     22 H5          14.6740    -0.0400    22.3190 ha         1 M50       0.122000
     23 H6          10.0350    -1.8580    22.4860 ha         1 M50       0.127000
     24 H7           8.0930     0.0250    21.6770 hn         1 M50       0.155000
     25 H8           7.1110    -1.7720    20.6320 hc         1 M50       0.047700
     26 H9           5.9760    -0.7600    21.5480 hc         1 M50       0.047700
     27 H10          5.4120    -1.6880    20.1530 hc         1 M50       0.047700
     28 H11          8.6260     2.7920    19.1430 h4         1 M50       0.061100
     29 H12          4.9850    -0.3350    18.1890 h4         1 M50       0.025100
     30 Cl          11.8410    -4.0350    21.9810 cl         1 M50      -0.210000
@<TRIPOS>BOND
     1     1    15 ar  
     2     1    16 ar  
     3     2    12 1   
     4     2    13 ar  
     5     2    15 ar  
     6     3     4 1   
     7     3    11 2   
     8     3    12 1   
     9     4     5 1   
    10     4    18 1   
    11     4    19 1   
    12     5     6 ar  
    13     5    10 ar  
    14     6     9 ar  
    15     6    20 1   
    16     7     8 ar  
    17     7     9 ar  
    18     7    21 1   
    19     8    10 ar  
    20     8    30 1   
    21     9    22 1   
    22    10    23 1   
    23    12    24 1   
    24    13    14 1   
    25    13    17 ar  
    26    14    25 1   
    27    14    26 1   
    28    14    27 1   
    29    15    28 1   
    30    16    17 ar  
    31    17    29 1   
@<TRIPOS>SUBSTRUCTURE
     1 M50         1 TEMP              0 ****  ****    0 ROOT
