@<TRIPOS>MOLECULE
M51
   60    64     1     0     0
SMALL
No Charge or Current Charge


@<TRIPOS>ATOM
      1 C1          -4.9720    -2.3800     0.0210 cc         1 M51      -0.273000
      2 C2          -6.2490    -1.8950     0.3690 cc         1 M51       0.277300
      3 N3          -6.2880    -0.6060     0.6630 nd         1 M51      -0.516800
      4 N4          -4.9510    -0.2660     0.5170 na         1 M51       0.206000
      5 C5          -4.1170    -1.3330     0.1240 cd         1 M51       0.219000
      6 C6          -4.4300     1.0320     0.5490 ca         1 M51       0.019800
      7 C7          -3.8990     1.6250    -0.6150 ca         1 M51      -0.105000
      8 C8          -3.3730     2.9280    -0.5700 ca         1 M51      -0.106500
      9 C9          -3.3840     3.6490     0.6360 ca         1 M51      -0.113000
     10 C10         -3.9230     3.0690     1.7960 ca         1 M51      -0.106500
     11 C11         -4.4480     1.7650     1.7520 ca         1 M51      -0.105000
     12 C12         -7.4620    -2.7790     0.3750 c3         1 M51      -0.121400
     13 N13         -2.7330    -1.2960    -0.1350 nh         1 M51      -0.769400
     14 C14         -2.0890    -2.3490    -0.9740 c6         1 M51       0.189300
     15 C15         -0.7770    -1.8330    -1.6500 c6         1 M51       0.157300
     16 N16          0.2140    -1.2570    -0.6770 n3         1 M51      -0.709600
     17 C17         -0.4700    -0.1890     0.1300 c6         1 M51       0.157300
     18 C18         -1.7690    -0.6900     0.8360 c6         1 M51       0.189300
     19 C19          1.5120    -0.8350    -1.3040 c5         1 M51       0.147500
     20 C20          2.2330    -2.0830    -1.9240 c5         1 M51       0.141800
     21 N21          3.7000    -1.8840    -1.7090 n7         1 M51      -0.821400
     22 C22          3.8390    -0.5640    -0.9990 c5         1 M51       0.076500
     23 C23          2.5180    -0.4610    -0.1880 c5         1 M51      -0.115400
     24 C24          5.0820    -0.4640    -0.0190 c          1 M51       0.612100
     25 N25          5.6600     0.8280     0.0520 n          1 M51      -0.418800
     26 C26          6.8930     1.0490     0.8610 c5         1 M51       0.103000
     27 C27          7.3170     2.5100     0.5690 c5         1 M51       0.043600
     28 S28          5.7240     3.4290     0.6270 ss         1 M51      -0.419000
     29 C29          4.9580     2.0720    -0.3680 c5         1 M51       0.240000
     30 O30          5.5840    -1.4190     0.5670 o          1 M51      -0.595100
     31 H1          -4.7380    -3.3990    -0.2620 ha         1 M51       0.145000
     32 H7          -3.8850     1.0700    -1.5510 ha         1 M51       0.136000
     33 H8          -2.9570     3.3780    -1.4700 ha         1 M51       0.115500
     34 H9          -2.9770     4.6580     0.6700 ha         1 M51       0.115000
     35 H10         -3.9350     3.6290     2.7290 ha         1 M51       0.115500
     36 H11         -4.8640     1.3200     2.6540 ha         1 M51       0.136000
     37 H12         -7.2740    -3.6910     0.9540 hc         1 M51       0.047367
     38 H12A        -8.3250    -2.2700     0.8180 hc         1 M51       0.047367
     39 H12B        -7.7290    -3.0740    -0.6460 hc         1 M51       0.047367
     40 H14         -1.8500    -3.2250    -0.3530 h1         1 M51       0.051700
     41 H14A        -2.7790    -2.6870    -1.7610 h1         1 M51       0.051700
     42 H15         -0.3370    -2.6740    -2.2050 h1         1 M51       0.042200
     43 H15A        -1.0500    -1.0720    -2.3950 h1         1 M51       0.042200
     44 H17          0.1970     0.2010     0.9110 h1         1 M51       0.042200
     45 H17A        -0.7320     0.6610    -0.5180 h1         1 M51       0.042200
     46 H18         -2.2150     0.1490     1.3850 h1         1 M51       0.051700
     47 H18A        -1.4880    -1.4410     1.5890 h1         1 M51       0.051700
     48 H19          1.3900    -0.0240    -2.0370 h1         1 M51       0.029700
     49 H20          1.9130    -3.0100    -1.4290 h1         1 M51       0.059700
     50 H20A         1.9940    -2.1830    -2.9920 h1         1 M51       0.059700
     51 HN21         4.0300    -2.6220    -1.0700 hn         1 M51       0.433000
     52 H22          3.8990     0.2360    -1.7490 h1         1 M51       0.074700
     53 H23          2.3450     0.5400     0.2190 hc         1 M51       0.064700
     54 H23A         2.4950    -1.1720     0.6480 hc         1 M51       0.064700
     55 H26          6.6770     0.9120     1.9290 h1         1 M51       0.070700
     56 H26A         7.6900     0.3440     0.5880 h1         1 M51       0.070700
     57 H27          8.0280     2.8960     1.3110 h1         1 M51       0.082700
     58 H27A         7.7640     2.6040    -0.4290 h1         1 M51       0.082700
     59 H29          5.1560     2.2150    -1.4370 h2         1 M51       0.072200
     60 H29A         3.8910     1.9890    -0.1350 h2         1 M51       0.072200
@<TRIPOS>BOND
     1     1     2 1   
     2     1     5 2   
     3     1    31 1   
     4     2     3 2   
     5     2    12 1   
     6     3     4 1   
     7     4     5 1   
     8     4     6 1   
     9     5    13 1   
    10     6     7 ar  
    11     6    11 ar  
    12     7     8 ar  
    13     7    32 1   
    14     8     9 ar  
    15     8    33 1   
    16     9    10 ar  
    17     9    34 1   
    18    10    11 ar  
    19    10    35 1   
    20    11    36 1   
    21    12    37 1   
    22    12    38 1   
    23    12    39 1   
    24    13    14 1   
    25    13    18 1   
    26    14    15 1   
    27    14    40 1   
    28    14    41 1   
    29    15    16 1   
    30    15    42 1   
    31    15    43 1   
    32    16    17 1   
    33    16    19 1   
    34    17    18 1   
    35    17    44 1   
    36    17    45 1   
    37    18    46 1   
    38    18    47 1   
    39    19    20 1   
    40    19    23 1   
    41    19    48 1   
    42    20    21 1   
    43    20    49 1   
    44    20    50 1   
    45    21    22 1   
    46    21    51 1   
    47    22    23 1   
    48    22    24 1   
    49    22    52 1   
    50    23    53 1   
    51    23    54 1   
    52    24    25 1   
    53    24    30 2   
    54    25    26 1   
    55    25    29 1   
    56    26    27 1   
    57    26    55 1   
    58    26    56 1   
    59    27    28 1   
    60    27    57 1   
    61    27    58 1   
    62    28    29 1   
    63    29    59 1   
    64    29    60 1   
@<TRIPOS>SUBSTRUCTURE
     1 M51         1 TEMP              0 ****  ****    0 ROOT
