@<TRIPOS>MOLECULE
M51
   60    64     1     0     0
SMALL
abcg2


@<TRIPOS>ATOM
      1 C1          -4.5670    -2.4840     0.1450 cc         1 M51      -0.273000
      2 C2          -5.8250    -2.1380     0.6810 cc         1 M51       0.277300
      3 N3          -5.9070    -0.8440     0.8980 nd         1 M51      -0.516800
      4 N4          -4.7320    -0.3260     0.4900 na         1 M51       0.206000
      5 C5          -3.8820    -1.2940     0.0440 cd         1 M51       0.219000
      6 C6          -4.5450     1.0700     0.5510 ca         1 M51       0.019800
      7 C7          -3.8930     1.7480    -0.4740 ca         1 M51      -0.105000
      8 C8          -3.7270     3.1230    -0.3890 ca         1 M51      -0.106500
      9 C9          -4.2210     3.8290     0.6990 ca         1 M51      -0.113000
     10 C10         -4.8840     3.1470     1.7120 ca         1 M51      -0.106500
     11 C11         -5.0430     1.7710     1.6460 ca         1 M51      -0.105000
     12 C12         -6.9610    -3.0490     0.9910 c3         1 M51      -0.121400
     13 N13         -2.6060    -1.0200    -0.4090 nh         1 M51      -0.769400
     14 C14         -1.9970    -2.0820    -1.1880 c6         1 M51       0.189300
     15 C15         -0.7250    -1.5800    -1.8390 c6         1 M51       0.157300
     16 N16          0.2170    -1.0920    -0.8450 n3         1 M51      -0.709600
     17 C17         -0.4070    -0.0100    -0.1050 c6         1 M51       0.157300
     18 C18         -1.6710    -0.4900     0.5790 c6         1 M51       0.189300
     19 C19          1.4740    -0.7040    -1.4650 c5         1 M51       0.147500
     20 C20          2.2390    -1.9200    -2.0640 c5         1 M51       0.141800
     21 N21          3.5800    -1.9460    -1.4860 n7         1 M51      -0.821400
     22 C22          3.8280    -0.5900    -1.0340 c5         1 M51       0.076500
     23 C23          2.4810    -0.1040    -0.4790 c5         1 M51      -0.115400
     24 C24          4.9210    -0.5570     0.0180 c          1 M51       0.612100
     25 N25          5.6400     0.5730     0.1350 n          1 M51      -0.418800
     26 C26          6.6930     0.6640     1.1430 c5         1 M51       0.103000
     27 C27          7.4570     1.9460     0.8620 c5         1 M51       0.043600
     28 S28          6.1980     3.1110     0.2760 ss         1 M51      -0.419000
     29 C29          5.4370     1.7680    -0.6700 c5         1 M51       0.240000
     30 O30          5.1140    -1.5200     0.7500 o          1 M51      -0.595100
     31 H1          -4.2070    -3.4680    -0.1060 ha         1 M51       0.145000
     32 H7          -3.5060     1.2090    -1.3270 ha         1 M51       0.136000
     33 H8          -3.2150     3.6430    -1.1880 ha         1 M51       0.115500
     34 H9          -4.0910     4.9010     0.7580 ha         1 M51       0.115000
     35 H10         -5.2740     3.6860     2.5650 ha         1 M51       0.115500
     36 H11         -5.5490     1.2420     2.4410 ha         1 M51       0.136000
     37 H12         -6.6410    -3.8770     1.6250 hc         1 M51       0.047367
     38 H12A        -7.7600    -2.5160     1.5040 hc         1 M51       0.047367
     39 H12B        -7.3760    -3.4840     0.0800 hc         1 M51       0.047367
     40 H14         -1.7630    -2.9590    -0.5660 h1         1 M51       0.051700
     41 H14A        -2.6910    -2.4020    -1.9660 h1         1 M51       0.051700
     42 H15         -0.2830    -2.4080    -2.3950 h1         1 M51       0.042200
     43 H15A        -0.9740    -0.7950    -2.5740 h1         1 M51       0.042200
     44 H17          0.2680     0.3560     0.6690 h1         1 M51       0.042200
     45 H17A        -0.6550     0.8470    -0.7560 h1         1 M51       0.042200
     46 H18         -2.1190     0.3480     1.1100 h1         1 M51       0.051700
     47 H18A        -1.4210    -1.2580     1.3240 h1         1 M51       0.051700
     48 H19          1.2910     0.0340    -2.2650 h1         1 M51       0.029700
     49 H20          1.7340    -2.8620    -1.8490 h1         1 M51       0.059700
     50 H20A         2.3010    -1.8230    -3.1500 h1         1 M51       0.059700
     51 HN21         3.5790    -2.5500    -0.6720 hn         1 M51       0.433000
     52 H22          4.1110     0.0160    -1.9020 h1         1 M51       0.074700
     53 H23          2.4030     0.9810    -0.3950 hc         1 M51       0.064700
     54 H23A         2.3320    -0.5330     0.5170 hc         1 M51       0.064700
     55 H26          6.2550     0.6870     2.1430 h1         1 M51       0.070700
     56 H26A         7.3560    -0.1990     1.0820 h1         1 M51       0.070700
     57 H27          7.9330     2.3400     1.7580 h1         1 M51       0.082700
     58 H27A         8.2180     1.8010     0.0950 h1         1 M51       0.082700
     59 H29          5.9120     1.6760    -1.6490 h2         1 M51       0.072200
     60 H29A         4.3830     2.0020    -0.8080 h2         1 M51       0.072200
@<TRIPOS>BOND
     1     1     2 1   
     2     1     5 2   
     3     1    31 1   
     4     2     3 2   
     5     2    12 1   
     6     3     4 1   
     7     4     5 1   
     8     4     6 1   
     9     5    13 1   
    10     6     7 ar  
    11     6    11 ar  
    12     7     8 ar  
    13     7    32 1   
    14     8     9 ar  
    15     8    33 1   
    16     9    10 ar  
    17     9    34 1   
    18    10    11 ar  
    19    10    35 1   
    20    11    36 1   
    21    12    37 1   
    22    12    38 1   
    23    12    39 1   
    24    13    14 1   
    25    13    18 1   
    26    14    15 1   
    27    14    40 1   
    28    14    41 1   
    29    15    16 1   
    30    15    42 1   
    31    15    43 1   
    32    16    17 1   
    33    16    19 1   
    34    17    18 1   
    35    17    44 1   
    36    17    45 1   
    37    18    46 1   
    38    18    47 1   
    39    19    20 1   
    40    19    23 1   
    41    19    48 1   
    42    20    21 1   
    43    20    49 1   
    44    20    50 1   
    45    21    22 1   
    46    21    51 1   
    47    22    23 1   
    48    22    24 1   
    49    22    52 1   
    50    23    53 1   
    51    23    54 1   
    52    24    25 1   
    53    24    30 2   
    54    25    26 1   
    55    25    29 1   
    56    26    27 1   
    57    26    55 1   
    58    26    56 1   
    59    27    28 1   
    60    27    57 1   
    61    27    58 1   
    62    28    29 1   
    63    29    59 1   
    64    29    60 1   
@<TRIPOS>SUBSTRUCTURE
     1 M51         1 TEMP              0 ****  ****    0 ROOT
