@<TRIPOS>MOLECULE
M52
   42    43     1     0     0
SMALL
No Charge or Current Charge


@<TRIPOS>ATOM
      1 C10          0.4240     1.3290    -1.8370 c3         1 M52       0.132800
      2 C13         -4.7400    -1.4700     1.1880 ca         1 M52       0.479900
      3 C15         -2.4860    -1.8110     1.1680 ca         1 M52       0.726900
      4 C12         -4.5950    -0.1770     0.6570 ca         1 M52      -0.177900
      5 C14         -3.3080     0.2940     0.3700 ca         1 M52       0.092000
      6 N03         -3.6890    -2.2820     1.4430 nb         1 M52      -0.780000
      7 N04         -1.5960    -2.7300     1.5000 nv         1 M52      -1.058900
      8 C11         -2.2280    -0.5630     0.6280 ca         1 M52      -0.423500
      9 S01         -0.5900    -0.0140     0.2710 sy         1 M52       1.199600
     10 O04         -0.3680     1.2040     1.0540 o          1 M52      -0.541000
     11 C09         -1.1590    -0.5430    -2.2890 c3         1 M52       0.192100
     12 O03          0.3630    -1.1270     0.2840 o          1 M52      -0.541000
     13 N01         -0.7330     0.5110    -1.3410 n3         1 M52      -0.753500
     14 C01          1.8210     0.6490    -1.9260 c          1 M52       0.577100
     15 O01          2.1230    -0.0890    -2.8600 o          1 M52      -0.574100
     16 N02          2.6730     0.9640    -0.8700 ns         1 M52      -0.138000
     17 C02          4.0060     0.5690    -0.5590 ca         1 M52      -0.066000
     18 C04          4.5870     1.1080     0.6050 ca         1 M52      -0.102500
     19 C05          4.7620    -0.3270    -1.3470 ca         1 M52      -0.102500
     20 C07          6.0730    -0.6680    -0.9710 ca         1 M52      -0.148000
     21 C08          6.6490    -0.1280     0.1890 ca         1 M52       0.123100
     22 C03          5.8990     0.7660     0.9810 ca         1 M52      -0.148000
     23 O02          7.9400    -0.5020     0.5040 os         1 M52      -0.338100
     24 C06          8.6190    -0.0050     1.6710 c3         1 M52       0.148900
     25 H10          0.2050     1.7030    -2.8460 h1         1 M52       0.083200
     26 H10A         0.5400     2.2260    -1.2130 h1         1 M52       0.083200
     27 H13         -5.7280    -1.8670     1.4200 h4         1 M52       0.033100
     28 H14         -3.1590     1.2900    -0.0470 ha         1 M52       0.134000
     29 HN04        -1.9930    -3.6530     1.6080 hn         1 M52       0.519500
     30 HN0A        -0.6880    -2.6710     1.0490 hn         1 M52       0.519500
     31 H09         -0.4070    -1.3410    -2.3620 h1         1 M52       0.052033
     32 H09A        -2.1100    -0.9980    -1.9840 h1         1 M52       0.052033
     33 H09B        -1.3050    -0.1240    -3.2930 h1         1 M52       0.052033
     34 HN02         2.2670     1.5880    -0.1850 hn         1 M52       0.149000
     35 H04          4.0200     1.7990     1.2270 ha         1 M52       0.128000
     36 H05          4.3560    -0.7710    -2.2500 ha         1 M52       0.128000
     37 H07          6.6470    -1.3590    -1.5830 ha         1 M52       0.125000
     38 H03          6.3120     1.2030     1.8850 ha         1 M52       0.125000
     39 H06          8.7100     1.0890     1.6330 h1         1 M52       0.040367
     40 H06A         8.0790    -0.2830     2.5850 h1         1 M52       0.040367
     41 H06B         9.6300    -0.4270     1.7310 h1         1 M52       0.040367
     42 Br          -6.1270     0.9230     0.3240 br         1 M52      -0.079100
@<TRIPOS>BOND
     1     1    13 1   
     2     1    14 1   
     3     1    25 1   
     4     1    26 1   
     5     2     4 ar  
     6     2     6 ar  
     7     2    27 1   
     8     3     6 ar  
     9     3     7 1   
    10     3     8 ar  
    11     4     5 ar  
    12     4    42 1   
    13     5     8 ar  
    14     5    28 1   
    15     7    29 1   
    16     7    30 1   
    17     8     9 1   
    18     9    10 2   
    19     9    12 2   
    20     9    13 1   
    21    11    13 1   
    22    11    31 1   
    23    11    32 1   
    24    11    33 1   
    25    14    15 2   
    26    14    16 1   
    27    16    17 1   
    28    16    34 1   
    29    17    18 ar  
    30    17    19 ar  
    31    18    22 ar  
    32    18    35 1   
    33    19    20 ar  
    34    19    36 1   
    35    20    21 ar  
    36    20    37 1   
    37    21    22 ar  
    38    21    23 1   
    39    22    38 1   
    40    23    24 1   
    41    24    39 1   
    42    24    40 1   
    43    24    41 1   
@<TRIPOS>SUBSTRUCTURE
     1 M52         1 TEMP              0 ****  ****    0 ROOT
