@<TRIPOS>MOLECULE
M52
   42    43     1     0     0
SMALL
bcc


@<TRIPOS>ATOM
      1 C10          0.5550     0.7000    -0.2200 c3         1 M52       0.132800
      2 C13         -5.4940    -0.6250     0.0920 ca         1 M52       0.545200
      3 C15         -3.7520    -2.1400     0.0810 ca         1 M52       0.792200
      4 C12         -4.6470     0.4600     0.2890 ca         1 M52      -0.243200
      5 C14         -3.2920     0.2160     0.3790 ca         1 M52       0.074000
      6 N03         -5.0630    -1.8620    -0.0080 nb         1 M52      -0.780000
      7 N04         -3.4260    -3.4350     0.0010 nv         1 M52      -0.948500
      8 C11         -2.8250    -1.0850     0.2670 ca         1 M52      -0.488800
      9 S01         -1.0750    -1.3000     0.4600 sy         1 M52       1.341200
     10 O04         -0.6930    -0.8390     1.7840 o          1 M52      -0.611800
     11 C09         -0.5460    -0.6010    -2.0250 c3         1 M52       0.192100
     12 O03         -0.7560    -2.6680     0.0690 o          1 M52      -0.611800
     13 N01         -0.4890    -0.2070    -0.6250 n3         1 M52      -0.753500
     14 C01          1.9170     0.0310    -0.0810 c          1 M52       0.644100
     15 O01          2.0190    -1.1730     0.0500 o          1 M52      -0.574100
     16 N02          2.9440     0.9060    -0.0800 ns         1 M52      -0.464100
     17 C02          4.3150     0.6450     0.0760 ca         1 M52       0.026600
     18 C04          5.2100     1.6110    -0.3700 ca         1 M52      -0.120500
     19 C05          4.8240    -0.5060     0.6810 ca         1 M52      -0.120500
     20 C07          6.1910    -0.6710     0.8170 ca         1 M52      -0.166000
     21 C08          7.0860     0.2990     0.3670 ca         1 M52       0.123100
     22 C03          6.5810     1.4510    -0.2270 ca         1 M52      -0.166000
     23 O02          8.3970     0.0410     0.5490 os         1 M52      -0.314900
     24 C06          9.3360     0.9950     0.0970 c3         1 M52       0.125700
     25 H10          0.5880     1.5080    -0.9540 h1         1 M52       0.083200
     26 H10A         0.3010     1.1670     0.7330 h1         1 M52       0.083200
     27 H13         -6.5660    -0.4820     0.0090 h4         1 M52       0.033100
     28 H14         -2.5950     1.0330     0.5160 ha         1 M52       0.152000
     29 HN04        -4.1490    -4.0880    -0.2500 hn         1 M52       0.464300
     30 HN0A        -2.4670    -3.7250    -0.0780 hn         1 M52       0.464300
     31 H09          0.2290    -1.3200    -2.2960 h1         1 M52       0.052033
     32 H09A        -1.5210    -1.0260    -2.2610 h1         1 M52       0.052033
     33 H09B        -0.4310     0.2930    -2.6340 h1         1 M52       0.052033
     34 HN02         2.7130     1.8690    -0.2770 hn         1 M52       0.315500
     35 H04          4.8380     2.5140    -0.8390 ha         1 M52       0.146000
     36 H05          4.1690    -1.2770     1.0540 ha         1 M52       0.146000
     37 H07          6.5720    -1.5690     1.2870 ha         1 M52       0.143000
     38 H03          7.2300     2.2370    -0.5900 ha         1 M52       0.143000
     39 H06          9.2690     1.1550    -0.9820 h1         1 M52       0.040367
     40 H06A         9.2200     1.9570     0.6040 h1         1 M52       0.040367
     41 H06B        10.3200     0.5950     0.3300 h1         1 M52       0.040367
     42 BR          -5.3390     2.2020     0.4190 br         1 M52      -0.079100
@<TRIPOS>BOND
     1     1    13 1   
     2     1    14 1   
     3     1    25 1   
     4     1    26 1   
     5     2     4 ar  
     6     2     6 ar  
     7     2    27 1   
     8     3     6 ar  
     9     3     7 1   
    10     3     8 ar  
    11     4     5 ar  
    12     4    42 1   
    13     5     8 ar  
    14     5    28 1   
    15     7    29 1   
    16     7    30 1   
    17     8     9 1   
    18     9    10 2   
    19     9    12 2   
    20     9    13 1   
    21    11    13 1   
    22    11    31 1   
    23    11    32 1   
    24    11    33 1   
    25    14    15 2   
    26    14    16 1   
    27    16    17 1   
    28    16    34 1   
    29    17    18 ar  
    30    17    19 ar  
    31    18    22 ar  
    32    18    35 1   
    33    19    20 ar  
    34    19    36 1   
    35    20    21 ar  
    36    20    37 1   
    37    21    22 ar  
    38    21    23 1   
    39    22    38 1   
    40    23    24 1   
    41    24    39 1   
    42    24    40 1   
    43    24    41 1   
@<TRIPOS>SUBSTRUCTURE
     1 M52         1 TEMP              0 ****  ****    0 ROOT
