@<TRIPOS>MOLECULE
M53
   59    62     1     0     0
SMALL
No Charge or Current Charge


@<TRIPOS>ATOM
      1 C11         23.5130    18.4140     5.6530 c          1 M53       0.665100
      2 C13         21.8940    20.0010     4.6530 c3         1 M53       0.227000
      3 C15         22.5290    19.9880     3.2390 c3         1 M53      -0.110433
      4 C18         22.6800    15.0180     7.1880 ca         1 M53      -0.186300
      5 C19         23.4630    14.7070     8.3130 ca         1 M53      -0.055000
      6 C02         21.4530    17.2150     7.6690 c          1 M53       0.622100
      7 C04         19.2240    16.9160     8.6590 cc         1 M53       0.516400
      8 C09         22.3650    16.4090     6.6550 c5         1 M53       0.131700
      9 C14         20.3540    19.9570     4.5410 c3         1 M53      -0.110433
     10 C16         22.3300    21.2160     5.5100 c3         1 M53      -0.110433
     11 C20         23.5930    13.3580     8.6990 ca         1 M53      -0.130000
     12 C21         22.9280    12.3440     7.9780 ca         1 M53      -0.070000
     13 C22         22.1400    12.6720     6.8570 ca         1 M53      -0.112000
     14 C23         22.0610    14.0190     6.4640 ca         1 M53      -0.023000
     15 C26         19.5970    14.6040     3.5760 ca         1 M53      -0.159600
     16 C27         18.6740    15.4540     4.2240 ca         1 M53      -0.055000
     17 C28         17.6450    16.0700     3.4950 ca         1 M53      -0.119000
     18 C29         17.5100    15.8310     2.1190 ca         1 M53      -0.040000
     19 C30         18.3980    14.9540     1.4590 ca         1 M53      -0.200300
     20 C31         18.2600    14.6810    -0.0420 c3         1 M53       0.359300
     21 C35         19.4360    14.3460     2.1980 ca         1 M53      -0.017000
     22 C37         21.6060    16.0570     5.2890 c5         1 M53       0.084000
     23 F32         17.0020    14.8860    -0.4950 f          1 M53      -0.110000
     24 F33         19.0750    15.4840    -0.7630 f          1 M53      -0.110000
     25 F34         18.5800    13.4060    -0.3600 f          1 M53      -0.110000
     26 N03         20.2830    16.5270     7.8870 ns         1 M53      -0.474400
     27 N05         19.0760    18.0620     9.3720 na         1 M53      -0.224700
     28 N06         17.8710    18.0770     9.9960 nc         1 M53      -0.198800
     29 N07         17.3150    16.9460     9.6480 nd         1 M53      -0.029000
     30 N08         18.1320    16.2100     8.8190 nd         1 M53      -0.438000
     31 N10         23.5800    17.2000     6.3110 ns         1 M53      -0.497900
     32 N24         21.2920    14.6060     5.4310 n          1 M53      -0.230400
     33 O12         22.2260    18.7780     5.3440 os         1 M53      -0.497100
     34 O17         24.5190    19.0490     5.3930 o          1 M53      -0.519000
     35 O36         21.0530    12.7810     4.0320 o          1 M53      -0.547100
     36 H1          23.6120    20.1480     3.2750 hc         1 M53       0.051922
     37 H2          22.3350    19.0340     2.7350 hc         1 M53       0.051922
     38 H3          22.1030    20.7890     2.6230 hc         1 M53       0.051922
     39 H4          23.9540    15.4920     8.8860 ha         1 M53       0.130000
     40 H5          19.8930    19.9110     5.5350 hc         1 M53       0.051922
     41 H6          19.9740    20.8490     4.0300 hc         1 M53       0.051922
     42 H7          20.0300    19.0760     3.9740 hc         1 M53       0.051922
     43 H8          22.0020    21.0960     6.5490 hc         1 M53       0.051922
     44 H9          23.4170    21.3530     5.5030 hc         1 M53       0.051922
     45 H10         21.8850    22.1390     5.1180 hc         1 M53       0.051922
     46 H11         24.1940    13.1000     9.5680 ha         1 M53       0.125000
     47 H12         23.0150    11.3070     8.2940 ha         1 M53       0.124000
     48 H13         21.6100    11.8900     6.3200 ha         1 M53       0.155000
     49 H14         18.7340    15.6290     5.2960 ha         1 M53       0.124000
     50 H15         16.9430    16.7300     4.0010 ha         1 M53       0.130000
     51 H16         16.7080    16.3240     1.5730 ha         1 M53       0.135000
     52 H17         20.1360    13.6780     1.6950 ha         1 M53       0.146000
     53 H18         22.2580    16.2050     4.4180 h1         1 M53       0.078700
     54 H19         20.7190    16.6860     5.1460 h1         1 M53       0.078700
     55 H20         20.2130    15.6250     7.4410 hn         1 M53       0.366500
     56 H21         19.7510    18.8120     9.4500 hn         1 M53       0.412000
     57 H22         24.5140    16.8960     6.5530 hn         1 M53       0.353500
     58 C25         20.7180    13.9220     4.3290 c          1 M53       0.624700
     59 O01         21.7120    18.2690     8.2410 o          1 M53      -0.571100
@<TRIPOS>BOND
     1     1    31 1   
     2     1    33 1   
     3     1    34 2   
     4     2     3 1   
     5     2     9 1   
     6     2    10 1   
     7     2    33 1   
     8     3    36 1   
     9     3    37 1   
    10     3    38 1   
    11     4     5 ar  
    12     4     8 1   
    13     4    14 ar  
    14     5    11 ar  
    15     5    39 1   
    16     6     8 1   
    17     6    26 1   
    18     6    59 2   
    19     7    26 1   
    20     7    27 1   
    21     7    30 2   
    22     8    22 1   
    23     8    31 1   
    24     9    40 1   
    25     9    41 1   
    26     9    42 1   
    27    10    43 1   
    28    10    44 1   
    29    10    45 1   
    30    11    12 ar  
    31    11    46 1   
    32    12    13 ar  
    33    12    47 1   
    34    13    14 ar  
    35    13    48 1   
    36    14    32 1   
    37    15    16 ar  
    38    15    21 ar  
    39    15    58 1   
    40    16    17 ar  
    41    16    49 1   
    42    17    18 ar  
    43    17    50 1   
    44    18    19 ar  
    45    18    51 1   
    46    19    20 1   
    47    19    21 ar  
    48    20    23 1   
    49    20    24 1   
    50    20    25 1   
    51    21    52 1   
    52    22    32 1   
    53    22    53 1   
    54    22    54 1   
    55    26    55 1   
    56    27    28 1   
    57    27    56 1   
    58    28    29 2   
    59    29    30 1   
    60    31    57 1   
    61    32    58 1   
    62    35    58 2   
@<TRIPOS>SUBSTRUCTURE
     1 M53         1 TEMP              0 ****  ****    0 ROOT
