@<TRIPOS>MOLECULE
M53
   59    62     1     0     0
SMALL
abcg2


@<TRIPOS>ATOM
      1 C11         23.3790    18.3670     5.4760 c          1 M53       0.665100
      2 C13         21.6750    20.0590     4.9490 c3         1 M53       0.227000
      3 C15         22.1200    20.3780     3.5290 c3         1 M53      -0.110433
      4 C18         22.6760    14.9930     6.9380 ca         1 M53      -0.186300
      5 C19         23.6230    14.7290     7.9080 ca         1 M53      -0.055000
      6 C02         21.5660    17.0820     7.4740 c          1 M53       0.622100
      7 C04         19.4650    17.2550     8.6490 cc         1 M53       0.516400
      8 C09         22.3020    16.3310     6.3450 c5         1 M53       0.131700
      9 C14         20.1570    19.9540     5.0100 c3         1 M53      -0.110433
     10 C16         22.1650    21.0970     5.9510 c3         1 M53      -0.110433
     11 C20         23.7530    13.4260     8.3730 ca         1 M53      -0.130000
     12 C21         22.9220    12.4310     7.8760 ca         1 M53      -0.070000
     13 C22         21.9590    12.6930     6.9070 ca         1 M53      -0.112000
     14 C23         21.8460    13.9950     6.4350 ca         1 M53      -0.023000
     15 C26         19.3600    14.5570     3.6410 ca         1 M53      -0.159600
     16 C27         18.4950    15.6030     3.9400 ca         1 M53      -0.055000
     17 C28         17.7480    16.1940     2.9320 ca         1 M53      -0.119000
     18 C29         17.8580    15.7470     1.6260 ca         1 M53      -0.040000
     19 C30         18.7100    14.6880     1.3290 ca         1 M53      -0.200300
     20 C31         18.8230    14.2150    -0.0880 c3         1 M53       0.359300
     21 C35         19.4530    14.0870     2.3350 ca         1 M53      -0.017000
     22 C37         21.4100    15.9090     5.1560 c5         1 M53       0.084000
     23 F32         17.6290    14.1840    -0.6930 f          1 M53      -0.110000
     24 F33         19.6050    15.0200    -0.8230 f          1 M53      -0.110000
     25 F34         19.3420    12.9870    -0.1760 f          1 M53      -0.110000
     26 N03         20.2590    16.7380     7.6640 ns         1 M53      -0.474400
     27 N05         19.7910    18.1680     9.5630 na         1 M53      -0.224700
     28 N06         18.7220    18.3940    10.3200 nc         1 M53      -0.198800
     29 N07         17.7970    17.6470     9.8740 nd         1 M53      -0.029000
     30 N08         18.2110    16.9210     8.8350 nd         1 M53      -0.438000
     31 N10         23.4460    17.0910     5.9400 ns         1 M53      -0.497900
     32 N24         20.9760    14.5400     5.4730 n          1 M53      -0.230400
     33 O12         22.1090    18.7250     5.3330 os         1 M53      -0.497100
     34 O17         24.3540    19.0370     5.2210 o          1 M53      -0.519000
     35 O36         19.9730    12.6170     4.8180 o          1 M53      -0.547100
     36 H1          23.1990    20.4970     3.4490 hc         1 M53       0.051922
     37 H2          21.8010    19.5990     2.8360 hc         1 M53       0.051922
     38 H3          21.6560    21.3120     3.2120 hc         1 M53       0.051922
     39 H4          24.2500    15.5210     8.3000 ha         1 M53       0.130000
     40 H5          19.8130    19.7190     6.0190 hc         1 M53       0.051922
     41 H6          19.7110    20.9050     4.7190 hc         1 M53       0.051922
     42 H7          19.7840    19.1860     4.3300 hc         1 M53       0.051922
     43 H8          21.8890    20.8170     6.9690 hc         1 M53       0.051922
     44 H9          23.2410    21.2440     5.9080 hc         1 M53       0.051922
     45 H10         21.6890    22.0530     5.7310 hc         1 M53       0.051922
     46 H11         24.4930    13.1910     9.1260 ha         1 M53       0.125000
     47 H12         23.0210    11.4190     8.2470 ha         1 M53       0.124000
     48 H13         21.3320    11.8960     6.5440 ha         1 M53       0.155000
     49 H14         18.3780    15.9520     4.9580 ha         1 M53       0.124000
     50 H15         17.0710    17.0030     3.1680 ha         1 M53       0.130000
     51 H16         17.2700    16.2220     0.8520 ha         1 M53       0.135000
     52 H17         20.1120    13.2570     2.1170 ha         1 M53       0.146000
     53 H18         22.0200    15.9050     4.2500 h1         1 M53       0.078700
     54 H19         20.5730    16.5810     4.9940 h1         1 M53       0.078700
     55 H20         19.8120    16.0300     7.0960 hn         1 M53       0.366500
     56 H21         20.6700    18.6420     9.7190 hn         1 M53       0.412000
     57 H22         24.3670    16.7090     6.0880 hn         1 M53       0.353500
     58 C25         20.1220    13.8160     4.6950 c          1 M53       0.624700
     59 O01         22.1330    17.8700     8.1940 o          1 M53      -0.571100
@<TRIPOS>BOND
     1     1    31 1   
     2     1    33 1   
     3     1    34 2   
     4     2     3 1   
     5     2     9 1   
     6     2    10 1   
     7     2    33 1   
     8     3    36 1   
     9     3    37 1   
    10     3    38 1   
    11     4     5 ar  
    12     4     8 1   
    13     4    14 ar  
    14     5    11 ar  
    15     5    39 1   
    16     6     8 1   
    17     6    26 1   
    18     6    59 2   
    19     7    26 1   
    20     7    27 1   
    21     7    30 2   
    22     8    22 1   
    23     8    31 1   
    24     9    40 1   
    25     9    41 1   
    26     9    42 1   
    27    10    43 1   
    28    10    44 1   
    29    10    45 1   
    30    11    12 ar  
    31    11    46 1   
    32    12    13 ar  
    33    12    47 1   
    34    13    14 ar  
    35    13    48 1   
    36    14    32 1   
    37    15    16 ar  
    38    15    21 ar  
    39    15    58 1   
    40    16    17 ar  
    41    16    49 1   
    42    17    18 ar  
    43    17    50 1   
    44    18    19 ar  
    45    18    51 1   
    46    19    20 1   
    47    19    21 ar  
    48    20    23 1   
    49    20    24 1   
    50    20    25 1   
    51    21    52 1   
    52    22    32 1   
    53    22    53 1   
    54    22    54 1   
    55    26    55 1   
    56    27    28 1   
    57    27    56 1   
    58    28    29 2   
    59    29    30 1   
    60    31    57 1   
    61    32    58 1   
    62    35    58 2   
@<TRIPOS>SUBSTRUCTURE
     1 M53         1 TEMP              0 ****  ****    0 ROOT
