@<TRIPOS>MOLECULE
M54
   53    57     1     0     0
SMALL
No Charge or Current Charge


@<TRIPOS>ATOM
      1 C           -3.7960    -0.0400     0.1860 ca         1 M54       0.028000
      2 C1          -3.5530    -1.3820     0.5120 ca         1 M54      -0.109000
      3 C2          -2.2440    -1.8510     0.6420 ca         1 M54      -0.097000
      4 C3          -2.6940     0.8170     0.0010 ca         1 M54      -0.104000
      5 C4          -1.3460     0.3800     0.1380 ca         1 M54       0.022000
      6 C5          -1.1330    -0.9940     0.4580 ca         1 M54      -0.054000
      7 C6           0.1830    -1.5010     0.5910 ca         1 M54      -0.023300
      8 C7           1.2670    -0.6470     0.3730 ca         1 M54      -0.132000
      9 C8          -0.2150     1.2540    -0.0410 ca         1 M54      -0.156600
     10 C9           1.0930     0.7050     0.0440 ca         1 M54       0.044200
     11 C10          2.2930     1.5290    -0.1850 cc         1 M54      -0.119400
     12 C11          2.1440     2.8730    -0.4350 cd         1 M54      -0.025400
     13 N            0.8820     3.4230    -0.4710 ns         1 M54      -0.371100
     14 C12         -0.3040     2.7590    -0.2980 c          1 M54       0.568600
     15 O           -1.3300     3.4180    -0.3330 o          1 M54      -0.566000
     16 C13         -5.1650     0.4800     0.0310 cc         1 M54      -0.158000
     17 C14         -6.2820    -0.2920     0.1870 cd         1 M54      -0.159000
     18 N15         -7.3520     0.5840    -0.0460 na         1 M54      -0.003200
     19 N16         -6.9290     1.8810    -0.3430 nd         1 M54      -0.524800
     20 C17         -5.6160     1.7740    -0.2870 cc         1 M54       0.259900
     21 C18          0.4990    -2.9590     0.9470 c3         1 M54      -0.039100
     22 C19          0.4260    -3.8980    -0.2790 c3         1 M54      -0.078400
     23 C20          0.7370    -5.3670     0.0720 c3         1 M54       0.148800
     24 N21          0.6590    -6.2360    -1.1160 n8         1 M54      -0.995200
     25 C22          3.6670     1.0320    -0.2410 ca         1 M54       0.003200
     26 C23          4.0360     0.0670    -1.1970 ca         1 M54      -0.138000
     27 C24          6.3220     0.0910    -0.3630 ca         1 M54      -0.205000
     28 C25          5.9610     1.0580     0.5880 ca         1 M54       0.139100
     29 C26          5.3590    -0.4050    -1.2580 ca         1 M54      -0.072000
     30 C27          4.6400     1.5290     0.6480 ca         1 M54      -0.140000
     31 O28          6.8920     1.5420     1.4550 oh         1 M54      -0.533100
     32 H1          -4.3710    -2.0790     0.6610 ha         1 M54       0.108000
     33 H2          -2.1180    -2.9010     0.8830 ha         1 M54       0.114000
     34 H3          -2.9310     1.8310    -0.2700 ha         1 M54       0.152000
     35 H7           2.2710    -1.0510     0.4710 ha         1 M54       0.123000
     36 H11          2.9600     3.5650    -0.6300 h4         1 M54       0.205000
     37 HN           0.7710     4.4160    -0.6410 hn         1 M54       0.330500
     38 H14         -6.4210    -1.3390     0.4310 h4         1 M54       0.153000
     39 HN15        -8.3430     0.3430    -0.0130 hn         1 M54       0.371000
     40 H17         -5.0180     2.6550    -0.4810 h4         1 M54       0.049100
     41 H181         1.5070    -3.0300     1.3740 hc         1 M54       0.048700
     42 H182        -0.1630    -3.3240     1.7410 hc         1 M54       0.048700
     43 H191        -0.5730    -3.8370    -0.7280 hc         1 M54       0.053700
     44 H192         1.1370    -3.5460    -1.0370 hc         1 M54       0.053700
     45 H201         1.7470    -5.4410     0.4980 h1         1 M54       0.025700
     46 H202         0.0170    -5.7280     0.8190 h1         1 M54       0.025700
     47 H211         1.3900    -5.9580    -1.7820 hn         1 M54       0.392000
     48 H212         0.9300    -7.1910    -0.8490 hn         1 M54       0.392000
     49 H23          3.2950    -0.3150    -1.8960 ha         1 M54       0.124000
     50 H24          7.3440    -0.2790    -0.4160 ha         1 M54       0.113000
     51 H26          5.6350    -1.1530    -1.9990 ha         1 M54       0.114000
     52 H27          4.3690     2.2750     1.3900 ha         1 M54       0.131000
     53 HO28         7.7480     1.1020     1.2660 ho         1 M54       0.465000
@<TRIPOS>BOND
     1     1     2 ar  
     2     1     4 ar  
     3     1    16 1   
     4     2     3 ar  
     5     2    32 1   
     6     3     6 ar  
     7     3    33 1   
     8     4     5 ar  
     9     4    34 1   
    10     5     6 ar  
    11     5     9 ar  
    12     6     7 ar  
    13     7     8 ar  
    14     7    21 1   
    15     8    10 ar  
    16     8    35 1   
    17     9    10 ar  
    18     9    14 1   
    19    10    11 1   
    20    11    12 2   
    21    11    25 1   
    22    12    13 1   
    23    12    36 1   
    24    13    14 1   
    25    13    37 1   
    26    14    15 2   
    27    16    17 2   
    28    16    20 1   
    29    17    18 1   
    30    17    38 1   
    31    18    19 1   
    32    18    39 1   
    33    19    20 2   
    34    20    40 1   
    35    21    22 1   
    36    21    41 1   
    37    21    42 1   
    38    22    23 1   
    39    22    43 1   
    40    22    44 1   
    41    23    24 1   
    42    23    45 1   
    43    23    46 1   
    44    24    47 1   
    45    24    48 1   
    46    25    26 ar  
    47    25    30 ar  
    48    26    29 ar  
    49    26    49 1   
    50    27    28 ar  
    51    27    29 ar  
    52    27    50 1   
    53    28    30 ar  
    54    28    31 1   
    55    29    51 1   
    56    30    52 1   
    57    31    53 1   
@<TRIPOS>SUBSTRUCTURE
     1 M54         1 TEMP              0 ****  ****    0 ROOT
