@<TRIPOS>MOLECULE
M54
   53    57     1     0     0
SMALL
abcg2


@<TRIPOS>ATOM
      1 C           -3.7150    -0.0510     0.2310 ca         1 M54       0.028000
      2 C1          -3.4590    -1.3940     0.5690 ca         1 M54      -0.109000
      3 C2          -2.1730    -1.8480     0.6560 ca         1 M54      -0.097000
      4 C3          -2.6450     0.7880    -0.0060 ca         1 M54      -0.104000
      5 C4          -1.3030     0.3550     0.0720 ca         1 M54       0.022000
      6 C5          -1.0680    -1.0050     0.4140 ca         1 M54      -0.054000
      7 C6           0.2680    -1.5000     0.5240 ca         1 M54      -0.023300
      8 C7           1.3070    -0.6550     0.2850 ca         1 M54      -0.132000
      9 C8          -0.1760     1.2240    -0.1750 ca         1 M54      -0.156600
     10 C9           1.1230     0.7030    -0.0790 ca         1 M54       0.044200
     11 C10          2.2770     1.5310    -0.3150 cc         1 M54      -0.119400
     12 C11          2.0680     2.8360    -0.5910 cd         1 M54      -0.025400
     13 N            0.8160     3.3410    -0.6700 ns         1 M54      -0.371100
     14 C12         -0.3510     2.6380    -0.5060 c          1 M54       0.568600
     15 O           -1.4140     3.2390    -0.6420 o          1 M54      -0.566000
     16 C13         -5.0840     0.4460     0.1350 cc         1 M54      -0.158000
     17 C14         -6.2610    -0.2740     0.2370 cd         1 M54      -0.159000
     18 N15         -7.2610     0.6020     0.0800 na         1 M54      -0.003200
     19 N16         -6.8420     1.8470    -0.1160 nd         1 M54      -0.524800
     20 C17         -5.5270     1.7700    -0.0870 cc         1 M54       0.259900
     21 C18          0.5560    -2.9360     0.8590 c3         1 M54      -0.039100
     22 C19          0.3850    -3.8690    -0.3430 c3         1 M54      -0.078400
     23 C20          0.7070    -5.3120     0.0100 c3         1 M54       0.148800
     24 N21          0.5110    -6.1820    -1.1410 n8         1 M54      -0.995200
     25 C22          3.6630     1.0150    -0.2640 ca         1 M54       0.003200
     26 C23          4.1040     0.0640    -1.1870 ca         1 M54      -0.138000
     27 C24          6.3020     0.1080    -0.1910 ca         1 M54      -0.205000
     28 C25          5.8670     1.0570     0.7280 ca         1 M54       0.139100
     29 C26          5.4160    -0.3810    -1.1410 ca         1 M54      -0.072000
     30 C27          4.5470     1.5050     0.6900 ca         1 M54      -0.140000
     31 O28          6.6700     1.5720     1.6800 oh         1 M54      -0.533100
     32 H1          -4.2740    -2.0790     0.7660 ha         1 M54       0.108000
     33 H2          -2.0090    -2.8830     0.9200 ha         1 M54       0.114000
     34 H3          -2.8350     1.8150    -0.2650 ha         1 M54       0.152000
     35 H7           2.3160    -1.0320     0.3870 ha         1 M54       0.123000
     36 H11          2.8690     3.5370    -0.7750 h4         1 M54       0.205000
     37 HN           0.7090     4.3220    -0.8890 hn         1 M54       0.330500
     38 H14         -6.4530    -1.3210     0.4010 h4         1 M54       0.153000
     39 HN15        -8.2480     0.4010     0.1000 hn         1 M54       0.371000
     40 H17         -4.9330     2.6620    -0.2220 h4         1 M54       0.049100
     41 H181         1.5860    -3.0090     1.2160 hc         1 M54       0.048700
     42 H182        -0.0720    -3.2770     1.6870 hc         1 M54       0.048700
     43 H191        -0.6360    -3.8150    -0.7290 hc         1 M54       0.053700
     44 H192         1.0420    -3.5310    -1.1510 hc         1 M54       0.053700
     45 H201         1.7220    -5.3580     0.4300 h1         1 M54       0.025700
     46 H202         0.0330    -5.6430     0.8060 h1         1 M54       0.025700
     47 H211         1.2180    -5.9780    -1.8380 hn         1 M54       0.392000
     48 H212         0.6710    -7.1430    -0.8670 hn         1 M54       0.392000
     49 H23          3.4260    -0.3200    -1.9380 ha         1 M54       0.124000
     50 H24          7.3250    -0.2490    -0.1670 ha         1 M54       0.113000
     51 H26          5.7610    -1.1140    -1.8580 ha         1 M54       0.114000
     52 H27          4.2110     2.2330     1.4190 ha         1 M54       0.131000
     53 HO28         7.5510     1.1870     1.6210 ho         1 M54       0.465000
@<TRIPOS>BOND
     1     1     2 ar  
     2     1     4 ar  
     3     1    16 1   
     4     2     3 ar  
     5     2    32 1   
     6     3     6 ar  
     7     3    33 1   
     8     4     5 ar  
     9     4    34 1   
    10     5     6 ar  
    11     5     9 ar  
    12     6     7 ar  
    13     7     8 ar  
    14     7    21 1   
    15     8    10 ar  
    16     8    35 1   
    17     9    10 ar  
    18     9    14 1   
    19    10    11 1   
    20    11    12 2   
    21    11    25 1   
    22    12    13 1   
    23    12    36 1   
    24    13    14 1   
    25    13    37 1   
    26    14    15 2   
    27    16    17 2   
    28    16    20 1   
    29    17    18 1   
    30    17    38 1   
    31    18    19 1   
    32    18    39 1   
    33    19    20 2   
    34    20    40 1   
    35    21    22 1   
    36    21    41 1   
    37    21    42 1   
    38    22    23 1   
    39    22    43 1   
    40    22    44 1   
    41    23    24 1   
    42    23    45 1   
    43    23    46 1   
    44    24    47 1   
    45    24    48 1   
    46    25    26 ar  
    47    25    30 ar  
    48    26    29 ar  
    49    26    49 1   
    50    27    28 ar  
    51    27    29 ar  
    52    27    50 1   
    53    28    30 ar  
    54    28    31 1   
    55    29    51 1   
    56    30    52 1   
    57    31    53 1   
@<TRIPOS>SUBSTRUCTURE
     1 M54         1 TEMP              0 ****  ****    0 ROOT
