@<TRIPOS>MOLECULE
M55
   36    37     1     0     0
SMALL
No Charge or Current Charge


@<TRIPOS>ATOM
      1 C3          -2.6470    -1.2770     0.3420 c6         1 M55       0.178300
      2 C4          -1.2740    -0.7040    -0.1570 c6         1 M55       0.165300
      3 C1          -3.7330     0.9850    -0.1990 c6         1 M55       0.361300
      4 C01          2.4390     1.3930    -0.6510 c3         1 M55       0.216900
      5 C02          4.1360     0.5310     1.0340 ca         1 M55      -0.085000
      6 C03          5.1450    -0.3700     1.4190 ca         1 M55      -0.113000
      7 C04          5.5570    -1.3840     0.5390 ca         1 M55      -0.094000
      8 C05          4.9580    -1.4990    -0.7270 ca         1 M55      -0.113000
      9 C06          3.9490    -0.5990    -1.1130 ca         1 M55      -0.085000
     10 C07          3.5340     0.4220    -0.2350 ca         1 M55      -0.108300
     11 C2          -3.8450    -0.5670    -0.3560 c6         1 M55       0.111300
     12 C5          -1.2780     0.8590    -0.0340 c6         1 M55       0.070300
     13 C6           0.0340     1.5450    -0.5270 c          1 M55       0.591100
     14 O01          1.1780     0.8380    -0.2400 os         1 M55      -0.464100
     15 O1          -3.8610     1.3820     1.1630 oh         1 M55      -0.716000
     16 O2          -5.0970    -1.0660     0.1740 oh         1 M55      -0.704000
     17 O3          -2.7610    -2.6990     0.1180 oh         1 M55      -0.706000
     18 O4          -0.1820    -1.2930     0.5860 oh         1 M55      -0.695000
     19 O5          -2.4580     1.4440    -0.6730 os         1 M55      -0.460000
     20 O6B          0.0430     2.6240    -1.1070 o          1 M55      -0.452000
     21 H3          -2.7160    -1.0670     1.4210 h1         1 M55       0.074700
     22 H4          -1.1690    -0.9520    -1.2240 h1         1 M55       0.050700
     23 H1          -4.5280     1.4580    -0.7980 h2         1 M55       0.068700
     24 H01          2.6110     2.3690    -0.1750 h1         1 M55       0.058200
     25 H02          2.4680     1.5370    -1.7390 h1         1 M55       0.058200
     26 H09          5.6070    -0.2810     2.4010 ha         1 M55       0.116500
     27 H10          6.3380    -2.0810     0.8370 ha         1 M55       0.115000
     28 H11          5.2750    -2.2850    -1.4090 ha         1 M55       0.116500
     29 H12          3.4890    -0.6970    -2.0940 ha         1 M55       0.115000
     30 H2          -3.7890    -0.7880    -1.4330 h1         1 M55       0.056700
     31 H5          -1.3110     1.1020     1.0380 h1         1 M55       0.087700
     32 HO1         -3.7290     2.3570     1.1560 ho         1 M55       0.517000
     33 HO2         -5.3020    -0.4940     0.9540 ho         1 M55       0.509000
     34 HO3         -3.7320    -2.8740     0.1460 ho         1 M55       0.518000
     35 HO4          0.6200    -0.7550     0.3600 ho         1 M55       0.523000
     36 H08          3.8210     1.3110     1.7240 ha         1 M55       0.115000
@<TRIPOS>BOND
     1     1     2 1   
     2     1    11 1   
     3     1    17 1   
     4     1    21 1   
     5     2    12 1   
     6     2    18 1   
     7     2    22 1   
     8     3    11 1   
     9     3    15 1   
    10     3    19 1   
    11     3    23 1   
    12     4    10 1   
    13     4    14 1   
    14     4    24 1   
    15     4    25 1   
    16     5     6 ar  
    17     5    10 ar  
    18     5    36 1   
    19     6     7 ar  
    20     6    26 1   
    21     7     8 ar  
    22     7    27 1   
    23     8     9 ar  
    24     8    28 1   
    25     9    10 ar  
    26     9    29 1   
    27    11    16 1   
    28    11    30 1   
    29    12    13 1   
    30    12    19 1   
    31    12    31 1   
    32    13    14 1   
    33    13    20 2   
    34    15    32 1   
    35    16    33 1   
    36    17    34 1   
    37    18    35 1   
@<TRIPOS>SUBSTRUCTURE
     1 M55         1 TEMP              0 ****  ****    0 ROOT
