@<TRIPOS>MOLECULE
M55
   36    37     1     0     0
SMALL
abcg2


@<TRIPOS>ATOM
      1 C3          -2.6040    -1.2330     0.3250 c6         1 M55       0.178300
      2 C4          -1.2650    -0.7140    -0.1810 c6         1 M55       0.165300
      3 C1          -3.5360     1.0830     0.1020 c6         1 M55       0.361300
      4 C01          2.3880     1.3540    -0.7700 c3         1 M55       0.216900
      5 C02          4.0320     0.6020     0.9690 ca         1 M55      -0.085000
      6 C03          5.0150    -0.2660     1.4200 ca         1 M55      -0.113000
      7 C04          5.4480    -1.3080     0.6090 ca         1 M55      -0.094000
      8 C05          4.8950    -1.4780    -0.6530 ca         1 M55      -0.113000
      9 C06          3.9090    -0.6090    -1.1000 ca         1 M55      -0.085000
     10 C07          3.4710     0.4370    -0.2950 ca         1 M55      -0.108300
     11 C2          -3.7480    -0.3920    -0.2280 c6         1 M55       0.111300
     12 C5          -1.1780     0.8090     0.0890 c6         1 M55       0.070300
     13 C6           0.0230     1.4540    -0.5820 c          1 M55       0.591100
     14 O01          1.1530     0.8660    -0.2080 os         1 M55      -0.464100
     15 O1          -3.6250     1.2600     1.4730 oh         1 M55      -0.716000
     16 O2          -4.9460    -0.8940     0.3090 oh         1 M55      -0.704000
     17 O3          -2.7230    -2.5750    -0.0740 oh         1 M55      -0.706000
     18 O4          -0.2700    -1.4360     0.4890 oh         1 M55      -0.695000
     19 O5          -2.2930     1.4920    -0.4200 os         1 M55      -0.460000
     20 O6B         -0.0340     2.3770    -1.3470 o          1 M55      -0.452000
     21 H3          -2.6050    -1.1510     1.4230 h1         1 M55       0.074700
     22 H4          -1.2200    -0.8730    -1.2700 h1         1 M55       0.050700
     23 H1          -4.2680     1.7000    -0.4310 h2         1 M55       0.068700
     24 H01          2.5540     2.3790    -0.4330 h1         1 M55       0.058200
     25 H02          2.3220     1.3550    -1.8590 h1         1 M55       0.058200
     26 H09          5.4460    -0.1280     2.4030 ha         1 M55       0.116500
     27 H10          6.2190    -1.9830     0.9600 ha         1 M55       0.115000
     28 H11          5.2340    -2.2840    -1.2900 ha         1 M55       0.116500
     29 H12          3.4810    -0.7430    -2.0870 ha         1 M55       0.115000
     30 H2          -3.7400    -0.4790    -1.3230 h1         1 M55       0.056700
     31 H5          -1.0690     0.9540     1.1740 h1         1 M55       0.087700
     32 HO1         -3.7100     2.2000     1.6670 ho         1 M55       0.517000
     33 HO2         -5.6690    -0.6820    -0.2900 ho         1 M55       0.509000
     34 HO3         -3.5860    -2.8900     0.2140 ho         1 M55       0.518000
     35 HO4          0.5900    -1.1930     0.1320 ho         1 M55       0.523000
     36 H08          3.6990     1.4150     1.6040 ha         1 M55       0.115000
@<TRIPOS>BOND
     1     1     2 1   
     2     1    11 1   
     3     1    17 1   
     4     1    21 1   
     5     2    12 1   
     6     2    18 1   
     7     2    22 1   
     8     3    11 1   
     9     3    15 1   
    10     3    19 1   
    11     3    23 1   
    12     4    10 1   
    13     4    14 1   
    14     4    24 1   
    15     4    25 1   
    16     5     6 ar  
    17     5    10 ar  
    18     5    36 1   
    19     6     7 ar  
    20     6    26 1   
    21     7     8 ar  
    22     7    27 1   
    23     8     9 ar  
    24     8    28 1   
    25     9    10 ar  
    26     9    29 1   
    27    11    16 1   
    28    11    30 1   
    29    12    13 1   
    30    12    19 1   
    31    12    31 1   
    32    13    14 1   
    33    13    20 2   
    34    15    32 1   
    35    16    33 1   
    36    17    34 1   
    37    18    35 1   
@<TRIPOS>SUBSTRUCTURE
     1 M55         1 TEMP              0 ****  ****    0 ROOT
