@<TRIPOS>MOLECULE
M56
   21    22     1     0     0
SMALL
No Charge or Current Charge


@<TRIPOS>ATOM
      1 N1          -0.4820    16.9090    58.5060 ns         1 M56      -0.502900
      2 C4           0.4090    19.0330    60.2660 ca         1 M56      -0.094000
      3 C5           0.8680    20.0540    61.1230 ca         1 M56      -0.062000
      4 C6           2.1860    20.0200    61.6000 ca         1 M56       0.102400
      5 C7           3.9990    20.6210    62.6900 cc         1 M56       0.389100
      6 C8           3.0200    18.9880    61.2270 ca         1 M56      -0.199000
      7 C1          -1.0910    15.9200    57.6140 c3         1 M56       0.093300
      8 C2           0.8170    16.8520    58.9610 c          1 M56       0.608700
      9 O1           1.5600    15.9370    58.6320 o          1 M56      -0.599100
     10 C3           1.2700    17.9680    59.8800 ca         1 M56      -0.144600
     11 N2           2.7270    20.9790    62.4470 nd         1 M56      -0.526100
     12 S1           4.6210    19.1370    61.9340 ss         1 M56       0.045800
     13 C9           2.5950    17.9570    60.3760 ca         1 M56      -0.013000
     14 H4          -1.0440    17.6920    58.8160 hn         1 M56       0.317500
     15 H6           0.2050    20.8650    61.4140 ha         1 M56       0.135000
     16 H7           4.6700    21.1870    63.3240 h5         1 M56       0.060800
     17 H2          -2.1310    16.2020    57.4080 h1         1 M56       0.041700
     18 H3          -0.5320    15.8810    56.6690 h1         1 M56       0.041700
     19 H1          -1.0720    14.9310    58.0900 h1         1 M56       0.041700
     20 H8           3.2860    17.1600    60.1050 ha         1 M56       0.147000
     21 H5          -0.6170    19.0870    59.9120 ha         1 M56       0.116000
@<TRIPOS>BOND
     1     1     7 1   
     2     1     8 1   
     3     1    14 1   
     4     2     3 ar  
     5     2    10 ar  
     6     2    21 1   
     7     3     4 ar  
     8     3    15 1   
     9     4     6 ar  
    10     4    11 1   
    11     5    11 2   
    12     5    12 1   
    13     5    16 1   
    14     6    12 1   
    15     6    13 ar  
    16     7    17 1   
    17     7    18 1   
    18     7    19 1   
    19     8     9 2   
    20     8    10 1   
    21    10    13 ar  
    22    13    20 1   
@<TRIPOS>SUBSTRUCTURE
     1 M56         1 TEMP              0 ****  ****    0 ROOT
