@<TRIPOS>MOLECULE
M56
   21    22     1     0     0
SMALL
abcg2


@<TRIPOS>ATOM
      1 N1          -0.4880    16.8500    58.6770 ns         1 M56      -0.502900
      2 C4           0.4980    19.2050    60.0600 ca         1 M56      -0.094000
      3 C5           0.9370    20.1750    60.9340 ca         1 M56      -0.062000
      4 C6           2.1840    20.0260    61.5400 ca         1 M56       0.102400
      5 C7           3.9060    20.4850    62.8060 cc         1 M56       0.389100
      6 C8           2.9670    18.9020    61.2340 ca         1 M56      -0.199000
      7 C1          -1.0500    15.8630    57.7850 c3         1 M56       0.093300
      8 C2           0.8360    17.0160    58.8080 c          1 M56       0.608700
      9 O1           1.6470    16.3400    58.1890 o          1 M56      -0.599100
     10 C3           1.2820    18.0760    59.7660 ca         1 M56      -0.144600
     11 N2           2.7490    20.9030    62.4350 nd         1 M56      -0.526100
     12 S1           4.4500    18.9880    62.1200 ss         1 M56       0.045800
     13 C9           2.5350    17.9300    60.3430 ca         1 M56      -0.013000
     14 H4          -1.1150    17.3230    59.3050 hn         1 M56       0.317500
     15 H6           0.3310    21.0460    61.1480 ha         1 M56       0.135000
     16 H7           4.5360    21.0140    63.5080 h5         1 M56       0.060800
     17 H2          -2.1300    15.9740    57.7870 h1         1 M56       0.041700
     18 H3          -0.6930    16.0060    56.7650 h1         1 M56       0.041700
     19 H1          -0.8060    14.8450    58.0930 h1         1 M56       0.041700
     20 H8           3.1520    17.0730    60.1100 ha         1 M56       0.147000
     21 H5          -0.4620    19.3420    59.5790 ha         1 M56       0.116000
@<TRIPOS>BOND
     1     1     7 1   
     2     1     8 1   
     3     1    14 1   
     4     2     3 ar  
     5     2    10 ar  
     6     2    21 1   
     7     3     4 ar  
     8     3    15 1   
     9     4     6 ar  
    10     4    11 1   
    11     5    11 2   
    12     5    12 1   
    13     5    16 1   
    14     6    12 1   
    15     6    13 ar  
    16     7    17 1   
    17     7    18 1   
    18     7    19 1   
    19     8     9 2   
    20     8    10 1   
    21    10    13 ar  
    22    13    20 1   
@<TRIPOS>SUBSTRUCTURE
     1 M56         1 TEMP              0 ****  ****    0 ROOT
