@<TRIPOS>MOLECULE
M57
   49    52     1     0     0
SMALL
No Charge or Current Charge


@<TRIPOS>ATOM
      1 O3         -11.1290    -0.7620    -0.3130 o          1 M57      -0.705500
      2 C4           6.9480     1.4460    -0.5890 ca         1 M57       0.027500
      3 C5           7.6560     0.4000     0.0350 ca         1 M57      -0.329500
      4 O4         -11.7060     1.2890    -0.0770 o          1 M57      -0.705500
      5 C6           6.9580    -0.5820     0.7640 ca         1 M57       0.027500
      6 N1           2.7560    -1.5610     0.0400 nc         1 M57      -0.826000
      7 C7           5.5580    -0.5150     0.8620 ca         1 M57      -0.193000
      8 C8          -0.8330    -1.3290    -0.0340 c          1 M57       0.646900
      9 C9          -3.0190     0.0330     0.0420 ca         1 M57      -0.042000
     10 O5          -7.6510     2.2060     0.1650 os         1 M57      -0.296000
     11 C10         -3.4770     1.3540     0.1900 ca         1 M57      -0.151500
     12 C11         -4.8520     1.6460     0.1830 ca         1 M57      -0.065500
     13 C12         -5.8040     0.6170     0.0260 ca         1 M57      -0.097500
     14 N3           9.8980     1.1030     1.2630 n8         1 M57      -1.003100
     15 C13         -7.2440     0.9130     0.0180 cc         1 M57       0.418500
     16 C14         -9.3860     0.8210    -0.0620 cd         1 M57       0.205500
     17 C15        -10.8440     0.4210    -0.1570 c          1 M57       0.633500
     18 N4           1.2300     0.1530     0.2070 nd         1 M57      -0.631800
     19 C            1.5500    -1.9990    -0.0670 cd         1 M57       0.780400
     20 O            9.9050    -1.0610     0.0880 o          1 M57      -0.553000
     21 C1           2.4740    -0.2590     0.2080 cc         1 M57       0.847900
     22 C16         -9.0080     2.1290     0.1130 cc         1 M57       0.095900
     23 C17         -5.3440    -0.7090    -0.1240 ca         1 M57      -0.065500
     24 C18         -3.9680    -0.9990    -0.1160 ca         1 M57      -0.151500
     25 C2           4.8480     0.5170     0.2300 ca         1 M57       0.393000
     26 C3           5.5480     1.5010    -0.4820 ca         1 M57      -0.193000
     27 N5           0.5510    -1.0580     0.0280 n          1 M57      -0.108500
     28 N7          -8.2290     0.0400    -0.1220 nd         1 M57      -0.626000
     29 O1           9.9070     1.1790    -1.1730 o          1 M57      -0.553000
     30 O2          -1.2840    -2.4660    -0.1490 o          1 M57      -0.611100
     31 H2           7.4710     2.2150    -1.1550 ha         1 M57       0.133000
     32 H3           7.4920    -1.3920     1.2600 ha         1 M57       0.133000
     33 H4           5.0280    -1.2660     1.4390 ha         1 M57       0.137000
     34 H5           3.0920     1.5480     0.2030 hn         1 M57       0.512000
     35 H6          -2.7630     2.1660     0.3130 ha         1 M57       0.121000
     36 H7          -5.1710     2.6800     0.3010 ha         1 M57       0.139500
     37 H8          10.5350     1.7940     0.8750 hn         1 M57       0.468500
     38 H9           9.0640     1.6380     1.4900 hn         1 M57       0.468500
     39 H10          2.2210    -3.8560     0.0200 hn         1 M57       0.522500
     40 H11          0.5050    -3.6970    -0.1100 hn         1 M57       0.522500
     41 H12         -9.5740     3.0450     0.2090 h4         1 M57       0.061100
     42 H13         -6.0550    -1.5230    -0.2470 ha         1 M57       0.139500
     43 H14         -3.6640    -2.0340    -0.2370 ha         1 M57       0.121000
     44 H15          5.0080     2.3100    -0.9650 ha         1 M57       0.137000
     45 H16         -1.0630     0.6600     0.1570 hn         1 M57       0.185000
     46 N            1.4270    -3.3070    -0.2800 nv         1 M57      -1.066900
     47 N6          -1.6120    -0.1840     0.0590 ns         1 M57      -0.116000
     48 N2           3.4680     0.6180     0.3340 nu         1 M57      -0.924900
     49 S            9.4400     0.3140    -0.0920 sy         1 M57       1.134600
@<TRIPOS>BOND
     1     1    17 1   
     2     2     3 ar  
     3     2    26 ar  
     4     2    31 1   
     5     3     5 ar  
     6     3    49 1   
     7     4    17 1   
     8     5     7 ar  
     9     5    32 1   
    10     6    19 2   
    11     6    21 1   
    12     7    25 ar  
    13     7    33 1   
    14     8    27 1   
    15     8    30 2   
    16     8    47 1   
    17     9    11 ar  
    18     9    24 ar  
    19     9    47 1   
    20    10    15 1   
    21    10    22 1   
    22    11    12 ar  
    23    11    35 1   
    24    12    13 ar  
    25    12    36 1   
    26    13    15 1   
    27    13    23 ar  
    28    14    37 1   
    29    14    38 1   
    30    14    49 1   
    31    15    28 2   
    32    16    17 1   
    33    16    22 2   
    34    16    28 1   
    35    18    21 2   
    36    18    27 1   
    37    19    27 1   
    38    19    46 1   
    39    20    49 2   
    40    21    48 1   
    41    22    41 1   
    42    23    24 ar  
    43    23    42 1   
    44    24    43 1   
    45    25    26 ar  
    46    25    48 1   
    47    26    44 1   
    48    29    49 2   
    49    34    48 1   
    50    39    46 1   
    51    40    46 1   
    52    45    47 1   
@<TRIPOS>SUBSTRUCTURE
     1 M57         1 TEMP              0 ****  ****    0 ROOT
