@<TRIPOS>MOLECULE
M57
   49    52     1     0     0
SMALL
abcg2


@<TRIPOS>ATOM
      1 O3         -10.7150    -0.8210     0.0600 o          1 M57      -0.705500
      2 C4           6.7320     1.8480    -0.4400 ca         1 M57       0.027500
      3 C5           7.4520     0.7220    -0.0610 ca         1 M57      -0.329500
      4 O4         -11.4540     1.2900     0.0590 o          1 M57      -0.705500
      5 C6           6.7900    -0.4670     0.2180 ca         1 M57       0.027500
      6 N1           2.6750    -1.6400     0.1700 nc         1 M57      -0.826000
      7 C7           5.4140    -0.5420     0.1320 ca         1 M57      -0.193000
      8 C8          -0.8650    -1.4370     0.1300 c          1 M57       0.646900
      9 C9          -2.8950    -0.0470    -0.0610 ca         1 M57      -0.042000
     10 O5          -7.4050     2.2420     0.0070 os         1 M57      -0.296000
     11 C10         -3.2980     1.2890    -0.0930 ca         1 M57      -0.151500
     12 C11         -4.6360     1.6280    -0.0730 ca         1 M57      -0.065500
     13 C12         -5.6150     0.6350    -0.0200 ca         1 M57      -0.097500
     14 N3           9.4440     0.5560     1.6620 n8         1 M57      -1.003100
     15 C13         -7.0340     0.9520     0.0030 cc         1 M57       0.418500
     16 C14         -9.1570     0.9310     0.0360 cd         1 M57       0.205500
     17 C15        -10.5700     0.4120     0.0530 c          1 M57       0.633500
     18 N4           1.1030    -0.0690    -0.2040 nd         1 M57      -0.631800
     19 C            1.4940    -2.2130     0.2850 cd         1 M57       0.780400
     20 O            9.7870    -0.3900    -0.6020 o          1 M57      -0.553000
     21 C1           2.3760    -0.3550    -0.1260 cc         1 M57       0.847900
     22 C16         -8.7590     2.2240     0.0280 cc         1 M57       0.095900
     23 C17         -5.2070    -0.6970     0.0060 ca         1 M57      -0.065500
     24 C18         -3.8690    -1.0460    -0.0140 ca         1 M57      -0.151500
     25 C2           4.6730     0.5890    -0.2430 ca         1 M57       0.393000
     26 C3           5.3580     1.7780    -0.5290 ca         1 M57      -0.193000
     27 N5           0.5190    -1.2820     0.0600 n          1 M57      -0.108500
     28 N7          -8.0310     0.1350     0.0200 nd         1 M57      -0.626000
     29 O1           9.6380     2.0960    -0.4190 o          1 M57      -0.553000
     30 O2          -1.3550    -2.5210     0.3740 o          1 M57      -0.611100
     31 H2           7.2310     2.7800    -0.6680 ha         1 M57       0.133000
     32 H3           7.3400    -1.3500     0.5150 ha         1 M57       0.133000
     33 H4           4.9180    -1.4720     0.3560 ha         1 M57       0.137000
     34 H5           2.9020     1.5140    -0.5990 hn         1 M57       0.512000
     35 H6          -2.5540     2.0760    -0.1290 ha         1 M57       0.121000
     36 H7          -4.9050     2.6750    -0.0980 ha         1 M57       0.139500
     37 H8          10.4060     0.2980     1.8630 hn         1 M57       0.468500
     38 H9           9.1750     1.3650     2.2130 hn         1 M57       0.468500
     39 H10          2.0730    -4.0640     0.8080 hn         1 M57       0.522500
     40 H11          0.3590    -3.8410     0.7420 hn         1 M57       0.522500
     41 H12         -9.2680     3.1720     0.0340 h4         1 M57       0.061100
     42 H13         -5.9510    -1.4820     0.0410 ha         1 M57       0.139500
     43 H14         -3.6030    -2.0910     0.0020 ha         1 M57       0.121000
     44 H15          4.8030     2.6600    -0.8260 ha         1 M57       0.137000
     45 H16         -0.9320     0.5310    -0.2440 hn         1 M57       0.185000
     46 N            1.2840    -3.4980     0.5480 nv         1 M57      -1.066900
     47 N6          -1.5200    -0.2800    -0.0950 ns         1 M57      -0.116000
     48 N2           3.3020     0.6210    -0.3490 nu         1 M57      -0.924900
     49 S            9.2060     0.7820     0.0410 sy         1 M57       1.134600
@<TRIPOS>BOND
     1     1    17 1   
     2     2     3 ar  
     3     2    26 ar  
     4     2    31 1   
     5     3     5 ar  
     6     3    49 1   
     7     4    17 1   
     8     5     7 ar  
     9     5    32 1   
    10     6    19 2   
    11     6    21 1   
    12     7    25 ar  
    13     7    33 1   
    14     8    27 1   
    15     8    30 2   
    16     8    47 1   
    17     9    11 ar  
    18     9    24 ar  
    19     9    47 1   
    20    10    15 1   
    21    10    22 1   
    22    11    12 ar  
    23    11    35 1   
    24    12    13 ar  
    25    12    36 1   
    26    13    15 1   
    27    13    23 ar  
    28    14    37 1   
    29    14    38 1   
    30    14    49 1   
    31    15    28 2   
    32    16    17 1   
    33    16    22 2   
    34    16    28 1   
    35    18    21 2   
    36    18    27 1   
    37    19    27 1   
    38    19    46 1   
    39    20    49 2   
    40    21    48 1   
    41    22    41 1   
    42    23    24 ar  
    43    23    42 1   
    44    24    43 1   
    45    25    26 ar  
    46    25    48 1   
    47    26    44 1   
    48    29    49 2   
    49    34    48 1   
    50    39    46 1   
    51    40    46 1   
    52    45    47 1   
@<TRIPOS>SUBSTRUCTURE
     1 M57         1 TEMP              0 ****  ****    0 ROOT
