@<TRIPOS>MOLECULE
M58
   17    17     1     0     0
SMALL
No Charge or Current Charge


@<TRIPOS>ATOM
      1 C02         -1.2560    -0.3770     0.8760 c3         1 M58       0.417800
      2 C04          0.1960    -0.2050     0.4390 ca         1 M58      -0.154300
      3 C05          0.7940     1.0700     0.3490 ca         1 M58      -0.055000
      4 C06          2.1440     1.1540    -0.0290 ca         1 M58      -0.168000
      5 C07          2.8590    -0.0240    -0.2910 ca         1 M58       0.342900
      6 C09          1.0030    -1.3340     0.1770 ca         1 M58       0.356900
      7 N01         -1.9010    -1.5390     0.2990 n8         1 M58      -0.990200
      8 N08          2.3070    -1.2530    -0.1870 nb         1 M58      -0.669000
      9 S03         -2.3260     0.9150     0.1580 sh         1 M58      -0.556800
     10 H1          -1.3600    -0.3550     1.9720 h2         1 M58       0.099700
     11 H2           0.2360     1.9780     0.5720 ha         1 M58       0.133000
     12 H3           2.6370     2.1190    -0.1150 ha         1 M58       0.127000
     13 H4           3.9070     0.0160    -0.5850 h4         1 M58       0.021100
     14 H5           0.6040    -2.3440     0.2640 h4         1 M58       0.030100
     15 H6          -2.8940    -1.4730     0.5420 hn         1 M58       0.419500
     16 H7          -1.9070    -1.4130    -0.7150 hn         1 M58       0.419500
     17 H9          -1.7410     0.9080    -1.0640 hs         1 M58       0.227800
@<TRIPOS>BOND
     1     1     2 1   
     2     1     7 1   
     3     1     9 1   
     4     1    10 1   
     5     2     3 ar  
     6     2     6 ar  
     7     3     4 ar  
     8     3    11 1   
     9     4     5 ar  
    10     4    12 1   
    11     5     8 ar  
    12     5    13 1   
    13     6     8 ar  
    14     6    14 1   
    15     7    15 1   
    16     7    16 1   
    17     9    17 1   
@<TRIPOS>SUBSTRUCTURE
     1 M58         1 TEMP              0 ****  ****    0 ROOT
