@<TRIPOS>MOLECULE
M58
   17    17     1     0     0
SMALL
abcg2


@<TRIPOS>ATOM
      1 C02         -1.2900    -0.2470     0.7130 c3         1 M58       0.417800
      2 C04          0.1740    -0.1390     0.3590 ca         1 M58      -0.154300
      3 C05          0.8550     1.0680     0.4910 ca         1 M58      -0.055000
      4 C06          2.2010     1.1270     0.1800 ca         1 M58      -0.168000
      5 C07          2.8290    -0.0270    -0.2690 ca         1 M58       0.342900
      6 C09          0.9080    -1.2360    -0.0790 ca         1 M58       0.356900
      7 N01         -1.7890    -1.5770     0.5830 n8         1 M58      -0.990200
      8 N08          2.1990    -1.1850    -0.3970 nb         1 M58      -0.669000
      9 S03         -2.2680     1.0520    -0.2030 sh         1 M58      -0.556800
     10 H1          -1.4180     0.0660     1.7510 h2         1 M58       0.099700
     11 H2           0.3340     1.9560     0.8280 ha         1 M58       0.133000
     12 H3           2.7570     2.0500     0.2780 ha         1 M58       0.127000
     13 H4           3.8810    -0.0100    -0.5330 h4         1 M58       0.021100
     14 H5           0.4350    -2.2060    -0.1740 h4         1 M58       0.030100
     15 H6          -2.7270    -1.6360     0.9570 hn         1 M58       0.419500
     16 H7          -1.8430    -1.8610    -0.3870 hn         1 M58       0.419500
     17 H9          -1.9390     0.6470    -1.4350 hs         1 M58       0.227800
@<TRIPOS>BOND
     1     1     2 1   
     2     1     7 1   
     3     1     9 1   
     4     1    10 1   
     5     2     3 ar  
     6     2     6 ar  
     7     3     4 ar  
     8     3    11 1   
     9     4     5 ar  
    10     4    12 1   
    11     5     8 ar  
    12     5    13 1   
    13     6     8 ar  
    14     6    14 1   
    15     7    15 1   
    16     7    16 1   
    17     9    17 1   
@<TRIPOS>SUBSTRUCTURE
     1 M58         1 TEMP              0 ****  ****    0 ROOT
