@<TRIPOS>MOLECULE
M59
   36    39     1     0     0
SMALL
bcc


@<TRIPOS>ATOM
      1 C2           1.6960     0.3150    -0.1390 ca         1 M59       0.445800
      2 N3           2.0190     1.5950    -0.3180 nb         1 M59      -0.749000
      3 C4           3.3220     1.7900    -0.2230 ca         1 M59       0.705900
      4 N5           4.2770     0.8950     0.0160 nb         1 M59      -0.830000
      5 C6           3.9390    -0.3870     0.1940 ca         1 M59       0.777200
      6 C7           2.5750    -0.7250     0.1200 ca         1 M59      -0.230200
      7 N8           4.8930    -1.2860     0.4460 nv         1 M59      -0.953500
      8 N14          1.8980    -1.9070     0.2550 nc         1 M59      -0.557100
      9 C15          0.6480    -1.5810     0.0790 cd         1 M59       0.402700
     10 N18          0.4560    -0.2520    -0.1740 na         1 M59      -0.241000
     11 C1          -0.7790     0.5020    -0.3480 c5         1 M59       0.057000
     12 C3          -1.9310    -0.3050    -0.9910 c5         1 M59      -0.075400
     13 C5          -3.0680    -0.1990     0.0420 c5         1 M59      -0.069000
     14 C8          -3.5810     1.2520     0.0200 c5         1 M59      -0.067400
     15 C9          -2.4170     2.0490     0.6600 c5         1 M59      -0.080400
     16 C10         -1.3830     0.9630     0.9900 c5         1 M59      -0.083700
     17 C11         -2.2840    -0.2150     1.3610 c5         1 M59      -0.083400
     18 C12         -4.1310    -1.2620    -0.0820 c3         1 M59       0.161400
     19 O13         -4.7640    -1.1390    -1.3360 oh         1 M59      -0.596800
     20 H1           3.6640     2.8110    -0.3570 h5         1 M59       0.045100
     21 H2           5.8610    -1.0160     0.4150 hn         1 M59       0.449300
     22 H3           4.6770    -2.2660     0.4920 hn         1 M59       0.449300
     23 H4          -0.1710    -2.2810     0.1180 h5         1 M59       0.064800
     24 H5          -0.5010     1.3610    -0.9600 h1         1 M59       0.094700
     25 H6          -2.2080     0.1040    -1.9620 hc         1 M59       0.061200
     26 H7          -1.6570    -1.3490    -1.1610 hc         1 M59       0.061200
     27 H8          -3.8230     1.5910    -0.9880 hc         1 M59       0.052200
     28 H9          -4.4900     1.3390     0.6200 hc         1 M59       0.052200
     29 H10         -2.0080     2.8160    -0.0010 hc         1 M59       0.051200
     30 H11         -2.7390     2.5510     1.5740 hc         1 M59       0.051200
     31 H12         -0.6330     1.2650     1.7210 hc         1 M59       0.085700
     32 H13         -2.9130    -0.0120     2.2310 hc         1 M59       0.052200
     33 H14         -1.7540    -1.1530     1.5430 hc         1 M59       0.052200
     34 H15         -3.6670    -2.2510     0.0360 h1         1 M59       0.020200
     35 H16         -4.8470    -1.1440     0.7440 h1         1 M59       0.020200
     36 H17         -5.4090    -1.8460    -1.4180 ho         1 M59       0.404000
@<TRIPOS>BOND
     1     1     2 ar  
     2     1     6 ar  
     3     1    10 1   
     4     2     3 ar  
     5     3     4 ar  
     6     3    20 1   
     7     4     5 ar  
     8     5     6 ar  
     9     5     7 1   
    10     6     8 1   
    11     7    21 1   
    12     7    22 1   
    13     8     9 2   
    14     9    10 1   
    15     9    23 1   
    16    10    11 1   
    17    11    12 1   
    18    11    16 1   
    19    11    24 1   
    20    12    13 1   
    21    12    25 1   
    22    12    26 1   
    23    13    14 1   
    24    13    17 1   
    25    13    18 1   
    26    14    15 1   
    27    14    27 1   
    28    14    28 1   
    29    15    16 1   
    30    15    29 1   
    31    15    30 1   
    32    16    17 1   
    33    16    31 1   
    34    17    32 1   
    35    17    33 1   
    36    18    19 1   
    37    18    34 1   
    38    18    35 1   
    39    19    36 1   
@<TRIPOS>SUBSTRUCTURE
     1 M59         1 TEMP              0 ****  ****    0 ROOT
