@<TRIPOS>MOLECULE
M59
   36    39     1     0     0
SMALL
No Charge or Current Charge


@<TRIPOS>ATOM
      1 C2           1.7730     0.3480    -0.1220 ca         1 M59       0.117500
      2 N3           2.1820     1.5770    -0.4980 nb         1 M59      -0.223000
      3 C4           3.5210     1.7680    -0.5490 ca         1 M59       0.179900
      4 N5           4.4800     0.8560    -0.2610 nb         1 M59      -0.304000
      5 C6           4.0430    -0.3550     0.1140 ca         1 M59       0.448900
      6 C7           2.6640    -0.6480     0.1930 ca         1 M59      -0.099600
      7 N8           5.0040    -1.2730     0.4020 nv         1 M59      -1.063900
      8 N14          2.0330    -1.8340     0.5500 nc         1 M59      -0.557100
      9 C15          0.7330    -1.5010     0.4390 cd         1 M59       0.402700
     10 N18          0.5110    -0.1700     0.0250 na         1 M59      -0.270300
     11 C1          -0.7750     0.5160    -0.1660 c5         1 M59       0.086300
     12 C3          -1.8730    -0.3100    -0.9190 c5         1 M59      -0.075400
     13 C5          -3.1280    -0.2180     0.0190 c5         1 M59      -0.069000
     14 C8          -3.6050     1.2780    -0.0170 c5         1 M59      -0.067400
     15 C9          -2.5140     2.0310     0.8080 c5         1 M59      -0.080400
     16 C10         -1.5040     0.8960     1.1680 c5         1 M59      -0.083700
     17 C11         -2.4610    -0.2940     1.4110 c5         1 M59      -0.083400
     18 C12         -4.2340    -1.2700    -0.2580 c3         1 M59       0.184600
     19 O13         -4.7680    -1.1110    -1.5780 oh         1 M59      -0.659000
     20 H1           3.8620     2.7570    -0.8530 h5         1 M59       0.045100
     21 H2           5.9420    -1.1070     0.0490 hn         1 M59       0.504500
     22 H3           4.7080    -2.2440     0.4720 hn         1 M59       0.504500
     23 H4          -0.0960    -2.1690     0.6390 h5         1 M59       0.064800
     24 H5          -0.5670     1.4320    -0.7360 h1         1 M59       0.094700
     25 H6          -2.0680     0.0900    -1.9200 hc         1 M59       0.061200
     26 H7          -1.5710    -1.3540    -1.0640 hc         1 M59       0.061200
     27 H8          -3.6960     1.6640    -1.0390 hc         1 M59       0.052200
     28 H9          -4.5900     1.3940     0.4510 hc         1 M59       0.052200
     29 H10         -2.0530     2.8530     0.2480 hc         1 M59       0.051200
     30 H11         -2.9470     2.4720     1.7140 hc         1 M59       0.051200
     31 H12         -0.8330     1.1420     1.9990 hc         1 M59       0.085700
     32 H13         -3.1620    -0.1230     2.2380 hc         1 M59       0.052200
     33 H14         -1.9460    -1.2430     1.6000 hc         1 M59       0.052200
     34 H15         -3.8070    -2.2750    -0.1400 h1         1 M59       0.020200
     35 H16         -5.0300    -1.1550     0.4900 h1         1 M59       0.020200
     36 H17         -5.4610    -1.7980    -1.6880 ho         1 M59       0.443000
@<TRIPOS>BOND
     1     1     2 ar  
     2     1     6 ar  
     3     1    10 1   
     4     2     3 ar  
     5     3     4 ar  
     6     3    20 1   
     7     4     5 ar  
     8     5     6 ar  
     9     5     7 1   
    10     6     8 1   
    11     7    21 1   
    12     7    22 1   
    13     8     9 2   
    14     9    10 1   
    15     9    23 1   
    16    10    11 1   
    17    11    12 1   
    18    11    16 1   
    19    11    24 1   
    20    12    13 1   
    21    12    25 1   
    22    12    26 1   
    23    13    14 1   
    24    13    17 1   
    25    13    18 1   
    26    14    15 1   
    27    14    27 1   
    28    14    28 1   
    29    15    16 1   
    30    15    29 1   
    31    15    30 1   
    32    16    17 1   
    33    16    31 1   
    34    17    32 1   
    35    17    33 1   
    36    18    19 1   
    37    18    34 1   
    38    18    35 1   
    39    19    36 1   
@<TRIPOS>SUBSTRUCTURE
     1 M59         1 TEMP              0 ****  ****    0 ROOT
