@<TRIPOS>MOLECULE
M5A
   29    30     1     0     0
SMALL
bcc


@<TRIPOS>ATOM
      1 O2          -2.2050    -2.5240     0.0820 o          1 M5A      -0.545100
      2 C9          -1.9620    -1.3330     0.0020 c          1 M5A       0.627300
      3 C10         -3.0560    -0.3570     0.0960 cc         1 M5A      -0.153700
      4 C11         -4.3910    -0.6390    -0.0530 cd         1 M5A      -0.109000
      5 C12         -5.2190     0.4820     0.1720 cd         1 M5A      -0.172000
      6 C13         -4.5020     1.5960     0.5100 cc         1 M5A      -0.144100
      7 S           -2.8260     1.2960     0.5370 ss         1 M5A       0.015200
      8 C4          -0.5700    -0.8490    -0.1610 ca         1 M5A      -0.212600
      9 C6           0.4660    -1.5410     0.4730 ca         1 M5A      -0.093000
     10 C2           1.7770    -1.1370     0.3200 ca         1 M5A      -0.137500
     11 C7          -0.2490     0.2280    -0.9830 ca         1 M5A      -0.093000
     12 C3           1.0760     0.6060    -1.1540 ca         1 M5A      -0.137500
     13 C1           2.1100    -0.0560    -0.5030 ca         1 M5A       0.046700
     14 C            3.5410     0.3430    -0.7180 c3         1 M5A      -0.182400
     15 C5           4.3330    -0.7830    -1.3860 c3         1 M5A      -0.054100
     16 C8           4.2310     0.8480     0.5790 c          1 M5A       0.936600
     17 O            5.4620     1.0210     0.5030 o          1 M5A      -0.826300
     18 O1           3.5080     1.0680     1.5670 o          1 M5A      -0.826300
     19 H1          -4.7590    -1.6180    -0.3240 ha         1 M5A       0.159000
     20 H2          -6.2960     0.4670     0.0950 ha         1 M5A       0.142000
     21 H3          -4.8810     2.5790     0.7440 h4         1 M5A       0.160000
     22 H4           0.2380    -2.3870     1.1090 ha         1 M5A       0.120500
     23 H5           2.5580    -1.6770     0.8420 ha         1 M5A       0.133500
     24 H6          -1.0190     0.7540    -1.5330 ha         1 M5A       0.120500
     25 H7           1.3040     1.4340    -1.8150 ha         1 M5A       0.133500
     26 H8           3.5430     1.1940    -1.4110 hc         1 M5A       0.036700
     27 H9           4.4060    -1.6620    -0.7430 hc         1 M5A       0.018700
     28 H10          3.8610    -1.0930    -2.3190 hc         1 M5A       0.018700
     29 H11          5.3450    -0.4520    -1.6140 hc         1 M5A       0.018700
@<TRIPOS>BOND
     1     1     2 2   
     2     2     3 1   
     3     2     8 1   
     4     3     4 2   
     5     3     7 1   
     6     4     5 1   
     7     4    19 1   
     8     5     6 2   
     9     5    20 1   
    10     6     7 1   
    11     6    21 1   
    12     8     9 ar  
    13     8    11 ar  
    14     9    10 ar  
    15     9    22 1   
    16    10    13 ar  
    17    10    23 1   
    18    11    12 ar  
    19    11    24 1   
    20    12    13 ar  
    21    12    25 1   
    22    13    14 1   
    23    14    15 1   
    24    14    16 1   
    25    14    26 1   
    26    15    27 1   
    27    15    28 1   
    28    15    29 1   
    29    16    17 1   
    30    16    18 1   
@<TRIPOS>SUBSTRUCTURE
     1 M5A         1 TEMP              0 ****  ****    0 ROOT
