@<TRIPOS>MOLECULE
M5A
   29    30     1     0     0
SMALL
No Charge or Current Charge


@<TRIPOS>ATOM
      1 O2          -2.3150    -2.5900     0.1940 o          1 M5A      -0.545100
      2 C9          -2.0310    -1.3980     0.2320 c          1 M5A       0.627300
      3 C10         -3.0800    -0.3610     0.3470 cc         1 M5A      -0.298600
      4 C11         -4.3460    -0.4910    -0.1740 cd         1 M5A      -0.091000
      5 C12         -5.1180     0.6960    -0.0640 cd         1 M5A      -0.154000
      6 C13         -4.4380     1.7410     0.5090 cc         1 M5A      -0.271000
      7 S           -2.7910     1.2750     0.9310 ss         1 M5A       0.305000
      8 C4          -0.6110    -0.9460    -0.0320 ca         1 M5A      -0.212600
      9 C6           0.4630    -1.7060     0.4750 ca         1 M5A      -0.075000
     10 C2           1.7920    -1.3200     0.2330 ca         1 M5A      -0.119500
     11 C7          -0.3220     0.1910    -0.8200 ca         1 M5A      -0.075000
     12 C3           1.0080     0.5730    -1.0610 ca         1 M5A      -0.119500
     13 C1           2.0800    -0.1750    -0.5360 ca         1 M5A       0.046700
     14 C            3.5200     0.2640    -0.8170 c3         1 M5A      -0.182400
     15 C5           4.4470    -0.8990    -1.2510 c3         1 M5A      -0.054100
     16 C8           4.0980     1.0430     0.3850 c          1 M5A       0.726000
     17 O            4.3660     2.2250     0.2260 o          1 M5A      -0.721000
     18 O1           4.2420     0.4590     1.4500 o          1 M5A      -0.721000
     19 H1          -4.7180    -1.4040    -0.6310 ha         1 M5A       0.141000
     20 H2          -6.1440     0.7730    -0.4150 ha         1 M5A       0.124000
     21 H3          -4.7720     2.7500     0.7090 h4         1 M5A       0.142000
     22 H4           0.2680    -2.5950     1.0720 ha         1 M5A       0.102500
     23 H5           2.5980    -1.9140     0.6550 ha         1 M5A       0.115500
     24 H6          -1.1230     0.7700    -1.2740 ha         1 M5A       0.102500
     25 H7           1.2050     1.4530    -1.6680 ha         1 M5A       0.115500
     26 H8           3.4970     0.9600    -1.6650 hc         1 M5A       0.036700
     27 H9           4.6040    -1.6170    -0.4380 hc         1 M5A       0.018700
     28 H10          4.0170    -1.4350    -2.1060 hc         1 M5A       0.018700
     29 H11          5.4280    -0.5120    -1.5510 hc         1 M5A       0.018700
@<TRIPOS>BOND
     1     1     2 2   
     2     2     3 1   
     3     2     8 1   
     4     3     4 2   
     5     3     7 1   
     6     4     5 1   
     7     4    19 1   
     8     5     6 2   
     9     5    20 1   
    10     6     7 1   
    11     6    21 1   
    12     8     9 ar  
    13     8    11 ar  
    14     9    10 ar  
    15     9    22 1   
    16    10    13 ar  
    17    10    23 1   
    18    11    12 ar  
    19    11    24 1   
    20    12    13 ar  
    21    12    25 1   
    22    13    14 1   
    23    14    15 1   
    24    14    16 1   
    25    14    26 1   
    26    15    27 1   
    27    15    28 1   
    28    15    29 1   
    29    16    17 1   
    30    16    18 1   
@<TRIPOS>SUBSTRUCTURE
     1 M5A         1 TEMP              0 ****  ****    0 ROOT
