@<TRIPOS>MOLECULE
M5B
   21    22     1     0     0
SMALL
No Charge or Current Charge


@<TRIPOS>ATOM
      1 CAC         22.7000   -29.3290    25.1270 cc         1 M5B      -0.161000
      2 CAD         22.9220   -29.0180    26.4450 cd         1 M5B      -0.221000
      3 CAE         23.6050   -28.7050    24.2360 cc         1 M5B      -0.006000
      4 CAF         22.1710   -24.0060    25.1350 cc         1 M5B      -0.212000
      5 CAG         23.1540   -23.9280    26.0920 cd         1 M5B       0.236900
      6 CAL         24.0090   -25.0390    24.4730 cc         1 M5B       0.575400
      7 CAM         24.5210   -27.9100    24.8770 cd         1 M5B      -0.504500
      8 NAH         24.8750   -25.6730    23.6600 nu         1 M5B      -0.797000
      9 NAI         22.7440   -24.7040    24.0900 na         1 M5B      -0.330500
     10 NAJ         24.3030   -24.5590    25.6580 nd         1 M5B      -0.618000
     11 OAA         26.7550   -26.4570    25.1260 o          1 M5B      -0.517500
     12 OAB         26.2170   -27.5760    22.8640 o          1 M5B      -0.517500
     13 SAK         24.3030   -27.9180    26.6280 ss         1 M5B       0.379000
     14 SAN         25.8080   -26.9700    24.1320 sy         1 M5B       1.207600
     15 H1          21.9100   -29.9890    24.7810 ha         1 M5B       0.141000
     16 H2          22.3810   -29.3560    27.3190 h4         1 M5B       0.155000
     17 H3          23.5590   -28.8560    23.1590 ha         1 M5B       0.147000
     18 H5          23.1000   -23.4460    27.0610 h4         1 M5B       0.048100
     19 H6          24.4670   -25.9740    22.7930 hn         1 M5B       0.484000
     20 H7          22.3160   -24.9370    23.2040 hn         1 M5B       0.351000
     21 H4          21.1570   -23.6230    25.1250 h4         1 M5B       0.162000
@<TRIPOS>BOND
     1     1     2 2   
     2     1     3 1   
     3     1    15 1   
     4     2    13 1   
     5     2    16 1   
     6     3     7 2   
     7     3    17 1   
     8     4     5 2   
     9     4     9 1   
    10     4    21 1   
    11     5    10 1   
    12     5    18 1   
    13     6     8 1   
    14     6     9 1   
    15     6    10 2   
    16     7    13 1   
    17     7    14 1   
    18     8    14 1   
    19     8    19 1   
    20     9    20 1   
    21    11    14 2   
    22    12    14 2   
@<TRIPOS>SUBSTRUCTURE
     1 M5B         1 TEMP              0 ****  ****    0 ROOT
