@<TRIPOS>MOLECULE
M5B
   21    22     1     0     0
SMALL
abcg2


@<TRIPOS>ATOM
      1 CAC         22.6510   -29.3520    24.9830 cc         1 M5B      -0.161000
      2 CAD         22.7020   -28.8660    26.2630 cd         1 M5B      -0.221000
      3 CAE         23.6630   -28.8110    24.1550 cc         1 M5B      -0.006000
      4 CAF         22.2260   -24.2400    25.3900 cc         1 M5B      -0.212000
      5 CAG         23.3000   -23.6600    26.0100 cd         1 M5B       0.236900
      6 CAL         24.1090   -24.8770    24.4440 cc         1 M5B       0.575400
      7 CAM         24.4680   -27.9360    24.8400 cd         1 M5B      -0.504500
      8 NAH         24.9740   -25.5680    23.5810 nu         1 M5B      -0.797000
      9 NAI         22.7580   -25.0230    24.3960 na         1 M5B      -0.330500
     10 NAJ         24.4740   -24.0590    25.4060 nd         1 M5B      -0.618000
     11 OAA         26.6010   -26.5460    25.2260 o          1 M5B      -0.517500
     12 OAB         26.2590   -27.5980    22.9850 o          1 M5B      -0.517500
     13 SAK         23.9840   -27.7530    26.4860 ss         1 M5B       0.379000
     14 SAN         25.7290   -26.9510    24.1560 sy         1 M5B       1.207600
     15 H1          21.9190   -30.0730    24.6480 ha         1 M5B       0.141000
     16 H2          22.0610   -29.1140    27.0940 h4         1 M5B       0.155000
     17 H3          23.7980   -29.0470    23.1100 ha         1 M5B       0.147000
     18 H5          23.2980   -22.9760    26.8430 h4         1 M5B       0.048100
     19 H6          24.5880   -25.7440    22.6580 hn         1 M5B       0.484000
     20 H7          22.2490   -25.6190    23.7600 hn         1 M5B       0.351000
     21 H4          21.1650   -24.1620    25.5500 h4         1 M5B       0.162000
@<TRIPOS>BOND
     1     1     2 2   
     2     1     3 1   
     3     1    15 1   
     4     2    13 1   
     5     2    16 1   
     6     3     7 2   
     7     3    17 1   
     8     4     5 2   
     9     4     9 1   
    10     4    21 1   
    11     5    10 1   
    12     5    18 1   
    13     6     8 1   
    14     6     9 1   
    15     6    10 2   
    16     7    13 1   
    17     7    14 1   
    18     8    14 1   
    19     8    19 1   
    20     9    20 1   
    21    11    14 2   
    22    12    14 2   
@<TRIPOS>SUBSTRUCTURE
     1 M5B         1 TEMP              0 ****  ****    0 ROOT
