@<TRIPOS>MOLECULE
M5C
   40    40     1     0     0
SMALL
No Charge or Current Charge


@<TRIPOS>ATOM
      1 OAD         -2.3110     1.5660     1.5140 o          1 M5C      -0.496000
      2 CAT         -1.5980     1.5390     0.5190 c          1 M5C       0.600100
      3 OAO         -1.8190     2.2980    -0.6010 os         1 M5C      -0.432100
      4 CAA         -2.9400     3.2010    -0.5980 c3         1 M5C       0.151900
      5 CBC         -0.3950     0.5850     0.3940 c6         1 M5C      -0.107700
      6 CBD         -0.7990    -0.9150     0.2750 c6         1 M5C      -0.105700
      7 CAU         -1.8530    -1.1810    -0.8180 c          1 M5C       0.598100
      8 OAP         -3.0910    -1.5060    -0.3240 os         1 M5C      -0.443100
      9 CAB         -4.1560    -1.7430    -1.2630 c3         1 M5C       0.152900
     10 OAE         -1.6060    -1.0600    -2.0110 o          1 M5C      -0.487000
     11 CAM          0.7130     0.8560     1.4530 c6         1 M5C      -0.059400
     12 CAZ          1.9240    -0.1000     1.2820 c6         1 M5C       0.177300
     13 OAQ          2.6110     0.2380     0.0510 os         1 M5C      -0.440000
     14 CAL          3.8680    -0.4210    -0.2160 c3         1 M5C       0.164600
     15 CAJ          4.4910     0.1730    -1.5120 c3         1 M5C       0.149800
     16 NAC          4.9080     1.5980    -1.3970 n8         1 M5C      -0.980200
     17 CBA          1.4610    -1.6030     1.3230 c6         1 M5C       0.141300
     18 CAN          0.4150    -1.8900     0.2090 c6         1 M5C      -0.099400
     19 OX0          0.9060    -1.9410     2.6070 oh         1 M5C      -0.719000
     20 HBC          0.0510     0.8440    -0.5770 hc         1 M5C       0.108700
     21 HAA1        -2.8460     3.9400     0.2080 h1         1 M5C       0.047033
     22 HAA2        -2.9950     3.7430    -1.5510 h1         1 M5C       0.047033
     23 HAA3        -3.8820     2.6550    -0.4630 h1         1 M5C       0.047033
     24 HBD         -1.3220    -1.1500     1.2130 hc         1 M5C       0.099700
     25 HAM1         1.0540     1.8980     1.3850 hc         1 M5C       0.068700
     26 HAM2         0.2960     0.7380     2.4630 hc         1 M5C       0.068700
     27 HAN1         0.0680    -2.9310     0.2740 hc         1 M5C       0.059700
     28 HAN2         0.9020    -1.7950    -0.7710 hc         1 M5C       0.059700
     29 HAB1        -4.3440    -0.8520    -1.8760 h1         1 M5C       0.047700
     30 HAB2        -3.9100    -2.5790    -1.9310 h1         1 M5C       0.047700
     31 HAB3        -5.0830    -1.9940    -0.7330 h1         1 M5C       0.047700
     32 HAZ          2.6220     0.0750     2.1140 h1         1 M5C       0.051700
     33 HBA          2.3360    -2.2440     1.1440 h1         1 M5C       0.033700
     34 HAL1         4.5650    -0.2880     0.6230 h1         1 M5C       0.018700
     35 HAL2         3.7160    -1.4970    -0.3670 h1         1 M5C       0.018700
     36 HAJ1         5.3770    -0.4210    -1.7760 h1         1 M5C       0.035700
     37 HAJ2         3.7690     0.0820    -2.3350 h1         1 M5C       0.035700
     38 HAC1         5.6300     1.6790    -0.6710 hn         1 M5C       0.391000
     39 HAC2         5.3960     1.8760    -2.2570 hn         1 M5C       0.391000
     40 HX0          0.7950    -2.9200     2.6240 ho         1 M5C       0.507000
@<TRIPOS>BOND
     1     1     2 2   
     2     2     3 1   
     3     2     5 1   
     4     3     4 1   
     5     4    21 1   
     6     4    22 1   
     7     4    23 1   
     8     5     6 1   
     9     5    11 1   
    10     5    20 1   
    11     6     7 1   
    12     6    18 1   
    13     6    24 1   
    14     7     8 1   
    15     7    10 2   
    16     8     9 1   
    17     9    29 1   
    18     9    30 1   
    19     9    31 1   
    20    11    12 1   
    21    11    25 1   
    22    11    26 1   
    23    12    13 1   
    24    12    17 1   
    25    12    32 1   
    26    13    14 1   
    27    14    15 1   
    28    14    34 1   
    29    14    35 1   
    30    15    16 1   
    31    15    36 1   
    32    15    37 1   
    33    16    38 1   
    34    16    39 1   
    35    17    18 1   
    36    17    19 1   
    37    17    33 1   
    38    18    27 1   
    39    18    28 1   
    40    19    40 1   
@<TRIPOS>SUBSTRUCTURE
     1 M5C         1 TEMP              0 ****  ****    0 ROOT
