@<TRIPOS>MOLECULE
M5C
   40    40     1     0     0
SMALL
abcg2


@<TRIPOS>ATOM
      1 OAD         -2.6170     1.4260     0.8770 o          1 M5C      -0.496000
      2 CAT         -1.5750     1.6240     0.3010 c          1 M5C       0.600100
      3 OAO         -1.2540     2.7860    -0.2490 os         1 M5C      -0.432100
      4 CAA         -2.1970     3.8520    -0.1380 c3         1 M5C       0.151900
      5 CBC         -0.4640     0.6120     0.1620 c6         1 M5C      -0.107700
      6 CBD         -0.9950    -0.8080     0.3250 c6         1 M5C      -0.105700
      7 CAU         -2.0420    -1.1140    -0.7180 c          1 M5C       0.598100
      8 OAP         -2.7080    -2.2230    -0.4340 os         1 M5C      -0.443100
      9 CAB         -3.6950    -2.6620    -1.3690 c3         1 M5C       0.152900
     10 OAE         -2.2430    -0.4540    -1.7070 o          1 M5C      -0.487000
     11 CAM          0.6190     0.8990     1.2150 c6         1 M5C      -0.059400
     12 CAZ          1.7600    -0.1060     1.1370 c6         1 M5C       0.177300
     13 OAQ          2.4150     0.0820    -0.0940 os         1 M5C      -0.440000
     14 CAL          3.7460    -0.3750    -0.1400 c3         1 M5C       0.164600
     15 CAJ          4.3810     0.0330    -1.4510 c3         1 M5C       0.149800
     16 NAC          4.4630     1.4770    -1.5910 n8         1 M5C      -0.980200
     17 CBA          1.2370    -1.5410     1.2660 c6         1 M5C       0.141300
     18 CAN          0.1550    -1.8210     0.2280 c6         1 M5C      -0.099400
     19 OX0          0.7540    -1.6700     2.5860 oh         1 M5C      -0.719000
     20 HBC         -0.0190     0.7270    -0.8300 hc         1 M5C       0.108700
     21 HAA1        -2.3810     4.1160     0.9030 h1         1 M5C       0.047033
     22 HAA2        -1.7520     4.6990    -0.6510 h1         1 M5C       0.047033
     23 HAA3        -3.1430     3.5960    -0.6160 h1         1 M5C       0.047033
     24 HBD         -1.4560    -0.9150     1.3110 hc         1 M5C       0.099700
     25 HAM1         1.0220     1.9040     1.0800 hc         1 M5C       0.068700
     26 HAM2         0.1800     0.8640     2.2150 hc         1 M5C       0.068700
     27 HAN1        -0.2220    -2.8380     0.3640 hc         1 M5C       0.059700
     28 HAN2         0.6030    -1.7860    -0.7680 hc         1 M5C       0.059700
     29 HAB1        -4.4950    -1.9300    -1.4740 h1         1 M5C       0.047700
     30 HAB2        -3.2570    -2.8600    -2.3470 h1         1 M5C       0.047700
     31 HAB3        -4.1000    -3.5840    -0.9640 h1         1 M5C       0.047700
     32 HAZ          2.4540     0.0880     1.9690 h1         1 M5C       0.051700
     33 HBA          2.0630    -2.2450     1.0950 h1         1 M5C       0.033700
     34 HAL1         4.3220     0.0420     0.7010 h1         1 M5C       0.018700
     35 HAL2         3.8060    -1.4670    -0.0500 h1         1 M5C       0.018700
     36 HAJ1         5.3540    -0.4770    -1.5050 h1         1 M5C       0.035700
     37 HAJ2         3.7830    -0.3660    -2.2750 h1         1 M5C       0.035700
     38 HAC1         5.1480     1.8380    -0.9390 hn         1 M5C       0.391000
     39 HAC2         4.8190     1.7030    -2.5110 hn         1 M5C       0.391000
     40 HX0          0.4550    -2.5760     2.7120 ho         1 M5C       0.507000
@<TRIPOS>BOND
     1     1     2 2   
     2     2     3 1   
     3     2     5 1   
     4     3     4 1   
     5     4    21 1   
     6     4    22 1   
     7     4    23 1   
     8     5     6 1   
     9     5    11 1   
    10     5    20 1   
    11     6     7 1   
    12     6    18 1   
    13     6    24 1   
    14     7     8 1   
    15     7    10 2   
    16     8     9 1   
    17     9    29 1   
    18     9    30 1   
    19     9    31 1   
    20    11    12 1   
    21    11    25 1   
    22    11    26 1   
    23    12    13 1   
    24    12    17 1   
    25    12    32 1   
    26    13    14 1   
    27    14    15 1   
    28    14    34 1   
    29    14    35 1   
    30    15    16 1   
    31    15    36 1   
    32    15    37 1   
    33    16    38 1   
    34    16    39 1   
    35    17    18 1   
    36    17    19 1   
    37    17    33 1   
    38    18    27 1   
    39    18    28 1   
    40    19    40 1   
@<TRIPOS>SUBSTRUCTURE
     1 M5C         1 TEMP              0 ****  ****    0 ROOT
