@<TRIPOS>MOLECULE
M5E
   28    29     1     0     0
SMALL
abcg2


@<TRIPOS>ATOM
      1 C10         -2.9550    -1.0790    -0.8030 ca         1 M5E      -0.108000
      2 C13         -1.7980     0.7210     0.9470 ca         1 M5E      -0.096500
      3 C02          0.2220     1.0240    -0.5040 c3         1 M5E       0.224600
      4 C03          1.3060     0.3530     0.3440 c5         1 M5E       0.109500
      5 C04          2.7110     0.9680     0.2180 c5         1 M5E      -0.111400
      6 C05          3.6530    -0.1850     0.6150 c5         1 M5E      -0.114400
      7 C06          2.7110    -1.4010     0.7740 c5         1 M5E       0.128800
      8 C08         -1.1310     0.3980    -0.2330 ca         1 M5E      -0.097300
      9 C09         -1.7270    -0.5040    -1.1080 ca         1 M5E      -0.096500
     10 C11         -3.6080    -0.7570     0.3780 ca         1 M5E      -0.108000
     11 C12         -3.0250     0.1500     1.2540 ca         1 M5E      -0.108000
     12 N07          1.4660    -1.0750     0.0860 n7         1 M5E      -0.813400
     13 O01          0.5390     1.0930    -1.8740 oh         1 M5E      -0.652000
     14 H1          -3.4040    -1.7790    -1.4950 ha         1 M5E       0.111000
     15 H2          -1.3560     1.4340     1.6330 ha         1 M5E       0.107000
     16 H3           0.1760     2.0670    -0.1730 h1         1 M5E       0.079700
     17 H4           0.9840     0.4510     1.3870 h1         1 M5E       0.072700
     18 H5           2.8940     1.2780    -0.8120 hc         1 M5E       0.054700
     19 H6           2.8270     1.8490     0.8500 hc         1 M5E       0.054700
     20 H7           4.3990    -0.3640    -0.1600 hc         1 M5E       0.047700
     21 H8           4.1940     0.0200     1.5400 hc         1 M5E       0.047700
     22 H9           3.1320    -2.3290     0.3900 h1         1 M5E       0.055200
     23 H10          2.4910    -1.5580     1.8340 h1         1 M5E       0.055200
     24 H11         -1.2520    -0.7690    -2.0450 ha         1 M5E       0.107000
     25 H12         -4.5670    -1.2010     0.6110 ha         1 M5E       0.112000
     26 H13         -3.5270     0.4190     2.1750 ha         1 M5E       0.111000
     27 H14          1.6250    -1.2230    -0.9060 hn         1 M5E       0.388000
     28 H16          0.7140     0.2150    -2.2240 ho         1 M5E       0.440000
@<TRIPOS>BOND
     1     1     9 ar  
     2     1    10 ar  
     3     1    14 1   
     4     2     8 ar  
     5     2    11 ar  
     6     2    15 1   
     7     3     4 1   
     8     3     8 1   
     9     3    13 1   
    10     3    16 1   
    11     4     5 1   
    12     4    12 1   
    13     4    17 1   
    14     5     6 1   
    15     5    18 1   
    16     5    19 1   
    17     6     7 1   
    18     6    20 1   
    19     6    21 1   
    20     7    12 1   
    21     7    22 1   
    22     7    23 1   
    23     8     9 ar  
    24     9    24 1   
    25    10    11 ar  
    26    10    25 1   
    27    11    26 1   
    28    12    27 1   
    29    13    28 1   
@<TRIPOS>SUBSTRUCTURE
     1 M5E         1 TEMP              0 ****  ****    0 ROOT
