@<TRIPOS>MOLECULE
M5E
   28    29     1     0     0
SMALL
No Charge or Current Charge


@<TRIPOS>ATOM
      1 C10         -2.8000    -1.4220     0.0700 ca         1 M5E      -0.108000
      2 C13         -2.2230     1.3070     0.3930 ca         1 M5E      -0.096500
      3 C02          0.2080     0.9790    -0.2790 c3         1 M5E       0.224600
      4 C03          1.3800     0.0770     0.2490 c5         1 M5E       0.109500
      5 C04          2.7010     0.8370     0.5120 c5         1 M5E      -0.111400
      6 C05          3.7020    -0.3340     0.7310 c5         1 M5E      -0.114400
      7 C06          3.0470    -1.5300    -0.0230 c5         1 M5E       0.128800
      8 C08         -1.1980     0.4270    -0.0150 ca         1 M5E      -0.097300
      9 C09         -1.5010    -0.9440    -0.1780 ca         1 M5E      -0.096500
     10 C11         -3.8100    -0.5370     0.4810 ca         1 M5E      -0.108000
     11 C12         -3.5210     0.8280     0.6410 ca         1 M5E      -0.108000
     12 N07          1.8670    -0.9540    -0.7060 n7         1 M5E      -0.813400
     13 O01          0.3530     1.2210    -1.6870 oh         1 M5E      -0.652000
     14 H1          -3.0220    -2.4790    -0.0570 ha         1 M5E       0.111000
     15 H2          -2.0140     2.3670     0.5170 ha         1 M5E       0.107000
     16 H3           0.2840     1.9310     0.2650 h1         1 M5E       0.079700
     17 H4           1.0340    -0.3950     1.1820 h1         1 M5E       0.072700
     18 H5           2.9900     1.4530    -0.3490 hc         1 M5E       0.054700
     19 H6           2.6380     1.5020     1.3820 hc         1 M5E       0.054700
     20 H7           4.6970    -0.0950     0.3380 hc         1 M5E       0.047700
     21 H8           3.8240    -0.5680     1.7950 hc         1 M5E       0.047700
     22 H9           3.7370    -2.0020    -0.7370 h1         1 M5E       0.055200
     23 H10          2.7310    -2.3030     0.6930 h1         1 M5E       0.055200
     24 H11         -0.7350    -1.6450    -0.5000 ha         1 M5E       0.107000
     25 H12         -4.8150    -0.9080     0.6720 ha         1 M5E       0.112000
     26 H13         -4.3030     1.5150     0.9560 ha         1 M5E       0.111000
     27 H14          2.2010    -0.4570    -1.5400 hn         1 M5E       0.388000
     28 H16          0.2420     0.3420    -2.1080 ho         1 M5E       0.440000
@<TRIPOS>BOND
     1     1     9 ar  
     2     1    10 ar  
     3     1    14 1   
     4     2     8 ar  
     5     2    11 ar  
     6     2    15 1   
     7     3     4 1   
     8     3     8 1   
     9     3    13 1   
    10     3    16 1   
    11     4     5 1   
    12     4    12 1   
    13     4    17 1   
    14     5     6 1   
    15     5    18 1   
    16     5    19 1   
    17     6     7 1   
    18     6    20 1   
    19     6    21 1   
    20     7    12 1   
    21     7    22 1   
    22     7    23 1   
    23     8     9 ar  
    24     9    24 1   
    25    10    11 ar  
    26    10    25 1   
    27    11    26 1   
    28    12    27 1   
    29    13    28 1   
@<TRIPOS>SUBSTRUCTURE
     1 M5E         1 TEMP              0 ****  ****    0 ROOT
