@<TRIPOS>MOLECULE
M5F
   25    25     1     0     0
SMALL
No Charge or Current Charge


@<TRIPOS>ATOM
      1 F5          -2.8470    -2.2270    -0.4120 f          1 M5F      -0.134500
      2 C5          -2.1550    -1.1140    -0.1150 cc         1 M5F      -0.029700
      3 C6          -0.8390    -1.1850     0.2820 cd         1 M5F      -0.057400
      4 N1          -0.1340    -0.0170     0.5850 n          1 M5F      -0.305000
      5 CAB          1.2920    -0.1030     1.0000 c3         1 M5F       0.050000
      6 CAM          2.2870    -0.3210    -0.1740 c3         1 M5F       0.155500
      7 CAL          3.7550    -0.4470     0.3400 c3         1 M5F       0.157800
      8 NAJ          4.7170    -0.7520    -0.7490 n8         1 M5F      -0.968200
      9 NAA          2.1960     0.7610    -1.1880 n8         1 M5F      -0.981200
     10 C2          -0.7560     1.2550     0.4980 c          1 M5F       0.616000
     11 O2          -0.1900     2.3030     0.7620 o          1 M5F      -0.548000
     12 N3          -2.0590     1.2570     0.1000 ns         1 M5F      -0.469500
     13 C4          -2.8450     0.1920    -0.2260 c          1 M5F       0.575200
     14 O4          -4.0080     0.3430    -0.5700 o          1 M5F      -0.490000
     15 H1          -0.2750    -2.1080     0.3820 h4         1 M5F       0.223000
     16 H2           1.5790     0.8000     1.5540 h1         1 M5F       0.074200
     17 H3           1.3940    -0.9400     1.7020 h1         1 M5F       0.074200
     18 H4           2.0280    -1.2670    -0.6710 h1         1 M5F       0.057700
     19 H5           4.0610     0.4900     0.8270 h1         1 M5F       0.027700
     20 H6           3.8110    -1.2530     1.0850 h1         1 M5F       0.027700
     21 H7           5.6510    -0.8850    -0.3430 hn         1 M5F       0.391500
     22 H8           4.4940    -1.6730    -1.1460 hn         1 M5F       0.391500
     23 H10          2.2300     1.6670    -0.7090 hn         1 M5F       0.405500
     24 H11          3.0820     0.7400    -1.7100 hn         1 M5F       0.405500
     25 H13         -2.4950     2.1630     0.0390 hn         1 M5F       0.349500
@<TRIPOS>BOND
     1     1     2 1   
     2     2     3 2   
     3     2    13 1   
     4     3     4 1   
     5     3    15 1   
     6     4     5 1   
     7     4    10 1   
     8     5     6 1   
     9     5    16 1   
    10     5    17 1   
    11     6     7 1   
    12     6     9 1   
    13     6    18 1   
    14     7     8 1   
    15     7    19 1   
    16     7    20 1   
    17     8    21 1   
    18     8    22 1   
    19     9    23 1   
    20     9    24 1   
    21    10    11 2   
    22    10    12 1   
    23    12    13 1   
    24    12    25 1   
    25    13    14 2   
@<TRIPOS>SUBSTRUCTURE
     1 M5F         1 TEMP              0 ****  ****    0 ROOT
