@<TRIPOS>MOLECULE
M5F
   25    25     1     0     0
SMALL
bcc


@<TRIPOS>ATOM
      1 F5          -2.7120    -2.0910    -0.4100 f          1 M5F      -0.134500
      2 C5          -2.0100    -0.9980    -0.1040 cc         1 M5F      -0.029700
      3 C6          -0.7350    -1.0710     0.2910 cd         1 M5F      -0.007400
      4 N1          -0.0090     0.0410     0.6200 n          1 M5F      -0.372000
      5 CAB          1.3920    -0.1300     0.9930 c3         1 M5F       0.050000
      6 CAM          2.3040    -0.3440    -0.2250 c3         1 M5F       0.155500
      7 CAL          3.7320    -0.5110     0.2880 c3         1 M5F       0.157800
      8 NAJ          4.6420    -0.9420    -0.7580 n8         1 M5F      -0.857800
      9 NAA          2.2240     0.6940    -1.2300 n8         1 M5F      -0.870800
     10 C2          -0.5600     1.2980     0.5550 c          1 M5F       0.825500
     11 O2           0.0420     2.3130     0.8370 o          1 M5F      -0.623500
     12 N3          -1.8740     1.3270     0.1440 ns         1 M5F      -0.603500
     13 C4          -2.6910     0.2720    -0.2100 c          1 M5F       0.717700
     14 O4          -3.8410     0.4300    -0.5610 o          1 M5F      -0.565500
     15 H1          -0.2240    -2.0210     0.3790 h4         1 M5F       0.173000
     16 H2           1.7020     0.7530     1.5500 h1         1 M5F       0.074200
     17 H3           1.4510    -0.9810     1.6730 h1         1 M5F       0.074200
     18 H4           2.0070    -1.2860    -0.7030 h1         1 M5F       0.057700
     19 H5           4.0790     0.4530     0.6730 h1         1 M5F       0.027700
     20 H6           3.7050    -1.1920     1.1510 h1         1 M5F       0.027700
     21 H7           5.5710    -1.0340    -0.3660 hn         1 M5F       0.336300
     22 H8           4.3840    -1.8730    -1.0610 hn         1 M5F       0.336300
     23 H10          1.3060     0.7160    -1.6560 hn         1 M5F       0.350300
     24 H11          2.3750     1.6050    -0.8130 hn         1 M5F       0.350300
     25 H13         -2.2850     2.2510     0.0870 hn         1 M5F       0.349500
@<TRIPOS>BOND
     1     1     2 1   
     2     2     3 2   
     3     2    13 1   
     4     3     4 1   
     5     3    15 1   
     6     4     5 1   
     7     4    10 1   
     8     5     6 1   
     9     5    16 1   
    10     5    17 1   
    11     6     7 1   
    12     6     9 1   
    13     6    18 1   
    14     7     8 1   
    15     7    19 1   
    16     7    20 1   
    17     8    21 1   
    18     8    22 1   
    19     9    23 1   
    20     9    24 1   
    21    10    11 2   
    22    10    12 1   
    23    12    13 1   
    24    12    25 1   
    25    13    14 2   
@<TRIPOS>SUBSTRUCTURE
     1 M5F         1 TEMP              0 ****  ****    0 ROOT
