@<TRIPOS>MOLECULE
M5G
  162   168     1     0     0
SMALL
No Charge or Current Charge


@<TRIPOS>ATOM
      1 O71         28.2250    70.1640    18.2320 o          1 M5G      -0.621100
      2 C71         28.2950    70.3910    17.0330 c          1 M5G       0.611100
      3 C81         29.4790    71.1160    16.4080 c3         1 M5G      -0.179100
      4 N21         27.2950    70.0450    16.1560 ns         1 M5G      -0.481900
      5 C21         26.0450    69.3290    16.5100 c6         1 M5G       0.104700
      6 C31         25.1790    69.0530    15.2380 c6         1 M5G       0.158300
      7 O31         25.9100    68.3000    14.2540 oh         1 M5G      -0.715000
      8 C11         25.1870    70.1030    17.5730 c6         1 M5G       0.359300
      9 O11         24.8420    71.4210    17.1450 oh         1 M5G      -0.674000
     10 O51         23.9550    69.4080    17.8440 os         1 M5G      -0.490000
     11 C51         23.0970    69.1850    16.6910 c6         1 M5G       0.119300
     12 C61         21.8080    68.4790    17.2060 c3         1 M5G       0.170600
     13 O61         21.3650    69.0640    18.4400 oh         1 M5G      -0.710000
     14 C41         23.8400    68.3500    15.6160 c6         1 M5G       0.115300
     15 O12         22.9820    68.1720    14.4620 os         1 M5G      -0.461000
     16 C12         22.9460    66.8610    13.8780 c6         1 M5G       0.361300
     17 C22         21.6810    66.7510    12.9630 c6         1 M5G       0.136300
     18 O22         21.6190    67.8590    12.0270 oh         1 M5G      -0.693000
     19 C32         21.7100    65.3590    12.2420 c6         1 M5G       0.151300
     20 O13         20.6120    65.1250    11.3150 os         1 M5G      -0.471000
     21 C13         19.2950    65.0610    11.8990 c6         1 M5G       0.361300
     22 O53         18.7930    66.4030    12.0530 os         1 M5G      -0.457000
     23 C53         18.6160    67.1300    10.8120 c6         1 M5G       0.101300
     24 C63         18.2230    68.5910    11.1760 c3         1 M5G       0.156600
     25 O63         19.1780    69.1910    12.0700 oh         1 M5G      -0.707000
     26 C43         17.5710    66.4050     9.9210 c6         1 M5G       0.115300
     27 O43         17.3710    67.0870     8.6670 oh         1 M5G      -0.705000
     28 C33         18.0470    64.9410     9.6650 c6         1 M5G       0.184300
     29 O33         17.0360    64.2340     8.9180 oh         1 M5G      -0.694000
     30 C23         18.3220    64.2100    11.0090 c6         1 M5G       0.117300
     31 O14         17.0520    63.9450    11.6610 os         1 M5G      -0.428000
     32 C14         17.0870    63.0490    12.7810 c6         1 M5G       0.377300
     33 O54         16.8310    61.7220    12.2920 os         1 M5G      -0.455000
     34 C54         16.9150    60.6920    13.3070 c6         1 M5G       0.120300
     35 C64         16.7390    59.3270    12.5740 c3         1 M5G       0.162600
     36 O64         15.6180    59.3490    11.6740 oh         1 M5G      -0.693000
     37 C44         15.8330    60.9610    14.4030 c6         1 M5G       0.093300
     38 O44         15.8950    59.9960    15.4780 oh         1 M5G      -0.724000
     39 C34         16.0370    62.3970    14.9730 c6         1 M5G       0.165300
     40 O34         15.0320    62.6640    15.9620 oh         1 M5G      -0.639000
     41 C24         16.0150    63.4600    13.8350 c6         1 M5G       0.080700
     42 N24         16.2650    64.8270    14.3650 ns         1 M5G      -0.498900
     43 C74         15.8040    65.9980    13.8070 c          1 M5G       0.623100
     44 O74         15.0440    66.0210    12.8510 o          1 M5G      -0.598100
     45 C84         16.2980    67.2660    14.4890 c3         1 M5G      -0.179100
     46 O52         24.1350    66.7110    13.0830 os         1 M5G      -0.481000
     47 C52         24.2500    65.4040    12.4590 c6         1 M5G       0.184300
     48 C42         23.0550    65.1860    11.4800 c6         1 M5G       0.134300
     49 O42         23.0970    63.8940    10.8400 oh         1 M5G      -0.726000
     50 C62         25.6220    65.3270    11.7310 c3         1 M5G       0.169600
     51 O15         26.6870    65.3590    12.7010 os         1 M5G      -0.464000
     52 C15         27.9990    65.0450    12.2050 c6         1 M5G       0.348300
     53 C25         29.0480    64.9680    13.3600 c6         1 M5G       0.153300
     54 O25         30.3170    64.4470    12.8790 oh         1 M5G      -0.701000
     55 C35         29.2280    66.3820    14.0070 c6         1 M5G       0.114300
     56 O16         30.2220    66.3110    15.0700 os         1 M5G      -0.486000
     57 C16         30.1110    67.2920    16.1250 c6         1 M5G       0.387300
     58 C26         31.4180    67.3120    16.9960 c6         1 M5G       0.120300
     59 O26         31.4390    68.3890    17.9590 oh         1 M5G      -0.710000
     60 C36         31.5510    65.9610    17.7590 c6         1 M5G       0.100300
     61 O36         32.6950    65.9900    18.6400 oh         1 M5G      -0.649000
     62 C46         30.2560    65.6620    18.5730 c6         1 M5G       0.144300
     63 O46         30.3900    64.3890    19.2350 oh         1 M5G      -0.697000
     64 C56         29.0140    65.7040    17.6300 c6         1 M5G       0.140300
     65 C66         27.6740    65.4990    18.4110 c3         1 M5G       0.163600
     66 O66         26.4990    65.5740    17.5760 oh         1 M5G      -0.717000
     67 O56         28.9550    66.9840    16.9430 os         1 M5G      -0.434000
     68 C45         29.5870    67.4440    12.9030 c6         1 M5G       0.131300
     69 O45         29.7100    68.7810    13.4290 oh         1 M5G      -0.716000
     70 C55         28.5150    67.3870    11.7680 c6         1 M5G       0.130300
     71 O55         28.4050    66.0400    11.2360 os         1 M5G      -0.496000
     72 C65         28.7840    68.3790    10.5890 c3         1 M5G       0.172600
     73 O17         30.1570    68.3250    10.1300 os         1 M5G      -0.484000
     74 C17         30.5300    67.2300     9.2680 c6         1 M5G       0.347300
     75 C27         32.0730    67.1950     9.0150 c6         1 M5G       0.162300
     76 O27         32.4290    66.0260     8.2290 oh         1 M5G      -0.692000
     77 C37         32.4880    68.5170     8.2790 c6         1 M5G       0.113300
     78 O37         33.8990    68.5650     7.9950 oh         1 M5G      -0.634000
     79 C47         31.6730    68.6930     6.9610 c6         1 M5G       0.097300
     80 O47         32.0050    69.9480     6.3270 oh         1 M5G      -0.708000
     81 C57         30.1460    68.5870     7.2650 c6         1 M5G       0.093300
     82 O57         29.8440    67.3620     7.9970 os         1 M5G      -0.487000
     83 C67         29.2740    68.5680     5.9750 c3         1 M5G       0.169600
     84 O67         27.9640    68.0670     6.2710 oh         1 M5G      -0.713000
     85 H81         29.1170    72.0370    15.9380 hc         1 M5G       0.061700
     86 H81A        30.2740    71.3260    17.1320 hc         1 M5G       0.061700
     87 H81B        29.8470    70.5480    15.5480 hc         1 M5G       0.061700
     88 HN21        27.4650    70.2350    15.1760 hn         1 M5G       0.322500
     89 H21         26.3280    68.3620    16.9500 h1         1 M5G       0.101700
     90 H31         24.9140    70.0290    14.8040 h1         1 M5G       0.052700
     91 HO31        25.2370    67.7320    13.7860 ho         1 M5G       0.535000
     92 H11         25.7640    70.1630    18.5090 h2         1 M5G       0.090700
     93 HO11        24.2700    71.7770    17.8570 ho         1 M5G       0.456000
     94 H51         22.8030    70.1540    16.2610 h1         1 M5G       0.073700
     95 H61         21.0280    68.5500    16.4360 h1         1 M5G       0.047700
     96 H61A        22.0320    67.4140    17.3560 h1         1 M5G       0.047700
     97 HO61        22.2040    69.3560    18.8740 ho         1 M5G       0.513000
     98 H41         24.0700    67.3680    16.0550 h1         1 M5G       0.065700
     99 H12         22.9090    66.0920    14.6650 h2         1 M5G       0.032700
    100 H22         20.8040    66.7790    13.6250 h1         1 M5G       0.061700
    101 HO22        22.3850    68.4350    12.2660 ho         1 M5G       0.520000
    102 H32         21.6640    64.5790    13.0160 h1         1 M5G       0.049700
    103 H13         19.3690    64.5900    12.8900 h2         1 M5G       0.062700
    104 H53         19.5760    67.1680    10.2770 h1         1 M5G       0.062700
    105 H63         18.1560    69.1730    10.2470 h1         1 M5G       0.059200
    106 H63A        17.2240    68.5810    11.6320 h1         1 M5G       0.059200
    107 HO63        19.9700    68.5860    12.0630 ho         1 M5G       0.496000
    108 H43         16.6220    66.3690    10.4790 h1         1 M5G       0.065700
    109 HO43        16.9340    66.4250     8.0780 ho         1 M5G       0.507000
    110 H33         18.9900    64.9790     9.0970 h1         1 M5G       0.104700
    111 HO33        16.4550    63.8300     9.6070 ho         1 M5G       0.519000
    112 H23         18.8050    63.2470    10.7880 h1         1 M5G       0.072700
    113 H14         18.0780    63.0750    13.2560 h2         1 M5G       0.013700
    114 H54         17.9160    60.7170    13.7620 h1         1 M5G       0.047700
    115 H64         17.6630    59.1310    12.0140 h1         1 M5G       0.057200
    116 H64A        16.6350    58.5220    13.3130 h1         1 M5G       0.057200
    117 HO64        15.6470    60.2450    11.2620 ho         1 M5G       0.492000
    118 H44         14.8430    60.9250    13.9210 h1         1 M5G       0.067700
    119 HO44        15.4140    59.1870    15.1800 ho         1 M5G       0.511000
    120 H34         17.0280    62.4320    15.4490 h1         1 M5G       0.033700
    121 HO34        14.9570    61.8230    16.4680 ho         1 M5G       0.458000
    122 H24         15.0300    63.4390    13.3470 h1         1 M5G       0.121700
    123 HN24        16.8470    64.9220    15.1870 hn         1 M5G       0.304500
    124 H84         17.3940    67.2670    14.4810 hc         1 M5G       0.063033
    125 H84A        15.8910    68.1750    14.0330 hc         1 M5G       0.063033
    126 H84B        16.0720    67.2100    15.5590 hc         1 M5G       0.063033
    127 H52         24.2310    64.6300    13.2400 h1         1 M5G       0.054700
    128 H42         23.1070    65.9760    10.7150 h1         1 M5G       0.080700
    129 HO42        22.2010    63.7720    10.4430 ho         1 M5G       0.521000
    130 H62         25.6620    64.3920    11.1580 h1         1 M5G       0.055200
    131 H62A        25.7060    66.1630    11.0240 h1         1 M5G       0.055200
    132 H15         27.9610    64.0600    11.7130 h2         1 M5G       0.081700
    133 H25         28.6380    64.2990    14.1330 h1         1 M5G       0.109700
    134 HO25        30.5080    64.9110    12.0350 ho         1 M5G       0.506000
    135 H35         28.2600    66.6630    14.4490 h1         1 M5G       0.104700
    136 H16         29.9870    68.2940    15.6980 h2         1 M5G       0.094700
    137 H26         32.2760    67.4130    16.3150 h1         1 M5G       0.041700
    138 HO26        32.0600    68.0810    18.6630 ho         1 M5G       0.524000
    139 H36         31.6760    65.1590    17.0150 h1         1 M5G       0.053700
    140 HO36        33.4940    65.8210    18.0890 ho         1 M5G       0.445000
    141 H46         30.1300    66.4610    19.3210 h1         1 M5G       0.109700
    142 HO46        31.3230    64.3680    19.5560 ho         1 M5G       0.498000
    143 H56         29.0970    64.9010    16.8840 h1         1 M5G       0.047700
    144 H66         27.7160    64.5190    18.9060 h1         1 M5G       0.043700
    145 H66A        27.6200    66.2580    19.2040 h1         1 M5G       0.043700
    146 HO66        25.7290    65.3470    18.1460 ho         1 M5G       0.498000
    147 H45         30.5520    67.1470    12.4670 h1         1 M5G       0.050700
    148 HO45        30.2520    69.2900    12.7820 ho         1 M5G       0.514000
    149 H55         27.5420    67.6700    12.1950 h1         1 M5G       0.074700
    150 H65         28.0800    68.1680     9.7730 h1         1 M5G       0.070200
    151 H65A        28.5580    69.3910    10.9500 h1         1 M5G       0.070200
    152 H17         30.2430    66.2780     9.7370 h2         1 M5G       0.094700
    153 H27         32.5790    67.1690     9.9910 h1         1 M5G       0.101700
    154 HO27        31.7140    65.9150     7.5610 ho         1 M5G       0.508000
    155 H37         32.2340    69.3560     8.9440 h1         1 M5G       0.044700
    156 HO37        33.9860    69.1640     7.2200 ho         1 M5G       0.452000
    157 H47         31.9360    67.8640     6.2850 h1         1 M5G       0.093700
    158 HO47        31.7000    70.6760     6.9180 ho         1 M5G       0.503000
    159 H57         29.8300    69.4460     7.8750 h1         1 M5G       0.056700
    160 H67         29.2240    69.5830     5.5570 h1         1 M5G       0.056700
    161 H67A        29.7650    67.9250     5.2310 h1         1 M5G       0.056700
    162 HO67        28.1250    67.4600     7.0360 ho         1 M5G       0.512000
@<TRIPOS>BOND
     1     1     2 2   
     2     2     3 1   
     3     2     4 1   
     4     3    85 1   
     5     3    86 1   
     6     3    87 1   
     7     4     5 1   
     8     4    88 1   
     9     5     6 1   
    10     5     8 1   
    11     5    89 1   
    12     6     7 1   
    13     6    14 1   
    14     6    90 1   
    15     7    91 1   
    16     8     9 1   
    17     8    10 1   
    18     8    92 1   
    19     9    93 1   
    20    10    11 1   
    21    11    12 1   
    22    11    14 1   
    23    11    94 1   
    24    12    13 1   
    25    12    95 1   
    26    12    96 1   
    27    13    97 1   
    28    14    15 1   
    29    14    98 1   
    30    15    16 1   
    31    16    17 1   
    32    16    46 1   
    33    16    99 1   
    34    17    18 1   
    35    17    19 1   
    36    17   100 1   
    37    18   101 1   
    38    19    20 1   
    39    19    48 1   
    40    19   102 1   
    41    20    21 1   
    42    21    22 1   
    43    21    30 1   
    44    21   103 1   
    45    22    23 1   
    46    23    24 1   
    47    23    26 1   
    48    23   104 1   
    49    24    25 1   
    50    24   105 1   
    51    24   106 1   
    52    25   107 1   
    53    26    27 1   
    54    26    28 1   
    55    26   108 1   
    56    27   109 1   
    57    28    29 1   
    58    28    30 1   
    59    28   110 1   
    60    29   111 1   
    61    30    31 1   
    62    30   112 1   
    63    31    32 1   
    64    32    33 1   
    65    32    41 1   
    66    32   113 1   
    67    33    34 1   
    68    34    35 1   
    69    34    37 1   
    70    34   114 1   
    71    35    36 1   
    72    35   115 1   
    73    35   116 1   
    74    36   117 1   
    75    37    38 1   
    76    37    39 1   
    77    37   118 1   
    78    38   119 1   
    79    39    40 1   
    80    39    41 1   
    81    39   120 1   
    82    40   121 1   
    83    41    42 1   
    84    41   122 1   
    85    42    43 1   
    86    42   123 1   
    87    43    44 2   
    88    43    45 1   
    89    45   124 1   
    90    45   125 1   
    91    45   126 1   
    92    46    47 1   
    93    47    48 1   
    94    47    50 1   
    95    47   127 1   
    96    48    49 1   
    97    48   128 1   
    98    49   129 1   
    99    50    51 1   
   100    50   130 1   
   101    50   131 1   
   102    51    52 1   
   103    52    53 1   
   104    52    71 1   
   105    52   132 1   
   106    53    54 1   
   107    53    55 1   
   108    53   133 1   
   109    54   134 1   
   110    55    56 1   
   111    55    68 1   
   112    55   135 1   
   113    56    57 1   
   114    57    58 1   
   115    57    67 1   
   116    57   136 1   
   117    58    59 1   
   118    58    60 1   
   119    58   137 1   
   120    59   138 1   
   121    60    61 1   
   122    60    62 1   
   123    60   139 1   
   124    61   140 1   
   125    62    63 1   
   126    62    64 1   
   127    62   141 1   
   128    63   142 1   
   129    64    65 1   
   130    64    67 1   
   131    64   143 1   
   132    65    66 1   
   133    65   144 1   
   134    65   145 1   
   135    66   146 1   
   136    68    69 1   
   137    68    70 1   
   138    68   147 1   
   139    69   148 1   
   140    70    71 1   
   141    70    72 1   
   142    70   149 1   
   143    72    73 1   
   144    72   150 1   
   145    72   151 1   
   146    73    74 1   
   147    74    75 1   
   148    74    82 1   
   149    74   152 1   
   150    75    76 1   
   151    75    77 1   
   152    75   153 1   
   153    76   154 1   
   154    77    78 1   
   155    77    79 1   
   156    77   155 1   
   157    78   156 1   
   158    79    80 1   
   159    79    81 1   
   160    79   157 1   
   161    80   158 1   
   162    81    82 1   
   163    81    83 1   
   164    81   159 1   
   165    83    84 1   
   166    83   160 1   
   167    83   161 1   
   168    84   162 1   
@<TRIPOS>SUBSTRUCTURE
     1 M5G         1 TEMP              0 ****  ****    0 ROOT
