@<TRIPOS>MOLECULE
M5G
  162   168     1     0     0
SMALL
abcg2


@<TRIPOS>ATOM
      1 O71         28.0870    70.8650    18.4980 o          1 M5G      -0.621100
      2 C71         28.0570    71.2940    17.3520 c          1 M5G       0.611100
      3 C81         29.1810    72.1260    16.7850 c3         1 M5G      -0.179100
      4 N21         27.0360    71.0550    16.5100 ns         1 M5G      -0.481900
      5 C21         25.8650    70.2950    16.8760 c6         1 M5G       0.104700
      6 C31         25.1430    69.8210    15.6170 c6         1 M5G       0.158300
      7 O31         26.0250    68.9790    14.9240 oh         1 M5G      -0.715000
      8 C11         24.9240    71.0940    17.7840 c6         1 M5G       0.359300
      9 O11         24.6170    72.2930    17.1550 oh         1 M5G      -0.674000
     10 O51         23.7890    70.3230    18.0780 os         1 M5G      -0.490000
     11 C51         23.0020    69.9610    16.9580 c6         1 M5G       0.119300
     12 C61         21.8010    69.2000    17.5000 c3         1 M5G       0.170600
     13 O61         20.9930    69.9960    18.3310 oh         1 M5G      -0.710000
     14 C41         23.8290    69.1250    15.9830 c6         1 M5G       0.115300
     15 O12         23.0360    68.9630    14.8140 os         1 M5G      -0.461000
     16 C12         22.9080    67.7040    14.2760 c6         1 M5G       0.361300
     17 C22         21.6410    67.6710    13.4210 c6         1 M5G       0.136300
     18 O22         21.6490    68.6650    12.4340 oh         1 M5G      -0.693000
     19 C32         21.5790    66.3070    12.7430 c6         1 M5G       0.151300
     20 O13         20.5040    66.2030    11.8340 os         1 M5G      -0.471000
     21 C13         19.3540    65.5720    12.3070 c6         1 M5G       0.361300
     22 O53         18.6380    66.3470    13.2130 os         1 M5G      -0.457000
     23 C53         18.1030    67.5590    12.7070 c6         1 M5G       0.101300
     24 C63         17.3740    68.2300    13.8600 c3         1 M5G       0.156600
     25 O63         18.2140    68.5480    14.9450 oh         1 M5G      -0.707000
     26 C43         17.1720    67.3010    11.5120 c6         1 M5G       0.115300
     27 O43         16.7900    68.5190    10.9170 oh         1 M5G      -0.705000
     28 C33         17.9040    66.4720    10.4540 c6         1 M5G       0.184300
     29 O33         17.0940    66.1560     9.3550 oh         1 M5G      -0.694000
     30 C23         18.5040    65.2190    11.0860 c6         1 M5G       0.117300
     31 O14         17.4160    64.4140    11.5000 os         1 M5G      -0.428000
     32 C14         17.6280    63.0530    11.5820 c6         1 M5G       0.377300
     33 O54         17.1500    62.4790    10.3990 os         1 M5G      -0.455000
     34 C54         17.3170    61.0750    10.3450 c6         1 M5G       0.120300
     35 C64         16.9140    60.6060     8.9570 c3         1 M5G       0.162600
     36 O64         15.5680    60.8620     8.6360 oh         1 M5G      -0.693000
     37 C44         16.5220    60.4220    11.4800 c6         1 M5G       0.093300
     38 O44         16.7440    59.0310    11.5250 oh         1 M5G      -0.724000
     39 C34         16.9680    60.9940    12.8230 c6         1 M5G       0.165300
     40 O34         16.1840    60.5180    13.8830 oh         1 M5G      -0.639000
     41 C24         16.8660    62.5140    12.7970 c6         1 M5G       0.080700
     42 N24         17.3800    63.0910    14.0100 ns         1 M5G      -0.498900
     43 C74         16.7680    64.0720    14.7050 c          1 M5G       0.623100
     44 O74         15.6760    64.5280    14.4020 o          1 M5G      -0.598100
     45 C84         17.5170    64.5510    15.9230 c3         1 M5G      -0.179100
     46 O52         24.0450    67.4540    13.4800 os         1 M5G      -0.481000
     47 C52         24.0600    66.1590    12.9130 c6         1 M5G       0.184300
     48 C42         22.8630    66.0030    11.9730 c6         1 M5G       0.134300
     49 O42         22.8650    64.6820    11.4970 oh         1 M5G      -0.726000
     50 C62         25.3690    65.9810    12.1800 c3         1 M5G       0.169600
     51 O15         26.4300    66.0950    13.1070 os         1 M5G      -0.464000
     52 C15         27.5680    65.3730    12.7710 c6         1 M5G       0.348300
     53 C25         28.5700    65.4850    13.9210 c6         1 M5G       0.153300
     54 O25         29.5820    64.5170    13.7900 oh         1 M5G      -0.701000
     55 C35         29.1120    66.9130    13.9880 c6         1 M5G       0.114300
     56 O16         30.1250    66.9770    14.9720 os         1 M5G      -0.486000
     57 C16         30.0480    68.0490    15.8610 c6         1 M5G       0.387300
     58 C26         31.3870    68.1190    16.5850 c6         1 M5G       0.120300
     59 O26         31.4310    69.3540    17.2560 oh         1 M5G      -0.710000
     60 C36         31.5320    66.9550    17.5690 c6         1 M5G       0.100300
     61 O36         32.6910    67.1190    18.3550 oh         1 M5G      -0.649000
     62 C46         30.3250    66.8870    18.4990 c6         1 M5G       0.144300
     63 O46         30.4010    65.8020    19.3900 oh         1 M5G      -0.697000
     64 C56         29.0390    66.8400    17.6600 c6         1 M5G       0.140300
     65 C66         27.8020    66.9240    18.5300 c3         1 M5G       0.163600
     66 O66         26.6620    66.7190    17.7270 oh         1 M5G      -0.717000
     67 O56         28.9850    67.9280    16.7540 os         1 M5G      -0.434000
     68 C45         29.6710    67.3560    12.6380 c6         1 M5G       0.131300
     69 O45         30.0080    68.7240    12.6480 oh         1 M5G      -0.716000
     70 C55         28.6090    67.1510    11.5560 c6         1 M5G       0.130300
     71 O55         28.1420    65.8080    11.5680 os         1 M5G      -0.496000
     72 C65         29.0950    67.4770    10.1550 c3         1 M5G       0.172600
     73 O17         30.3620    66.9460     9.8220 os         1 M5G      -0.484000
     74 C17         30.4350    65.5940     9.4870 c6         1 M5G       0.347300
     75 C27         31.9080    65.2550     9.2520 c6         1 M5G       0.162300
     76 O27         32.0900    63.8610     9.2140 oh         1 M5G      -0.692000
     77 C37         32.4010    65.9610     7.9880 c6         1 M5G       0.113300
     78 O37         33.7360    65.5910     7.7590 oh         1 M5G      -0.634000
     79 C47         31.4970    65.6370     6.7970 c6         1 M5G       0.097300
     80 O47         31.9070    66.3260     5.6370 oh         1 M5G      -0.708000
     81 C57         30.0400    65.9420     7.1530 c6         1 M5G       0.093300
     82 O57         29.6740    65.2750     8.3550 os         1 M5G      -0.487000
     83 C67         29.0670    65.4680     6.0880 c3         1 M5G       0.169600
     84 O67         27.7390    65.8370     6.3650 oh         1 M5G      -0.713000
     85 H81         28.9830    72.5050    15.7840 hc         1 M5G       0.061700
     86 H81A        29.3770    72.9710    17.4450 hc         1 M5G       0.061700
     87 H81B        30.0860    71.5210    16.7520 hc         1 M5G       0.061700
     88 HN21        27.0440    71.5070    15.6100 hn         1 M5G       0.322500
     89 H21         26.1790    69.4100    17.4370 h1         1 M5G       0.101700
     90 H31         24.8780    70.7000    15.0060 h1         1 M5G       0.052700
     91 HO31        25.5440    68.5170    14.2230 ho         1 M5G       0.535000
     92 H11         25.4040    71.2610    18.7530 h2         1 M5G       0.090700
     93 HO11        24.2220    72.8950    17.7940 ho         1 M5G       0.456000
     94 H51         22.6450    70.8560    16.4320 h1         1 M5G       0.073700
     95 H61         21.1740    68.8770    16.6680 h1         1 M5G       0.047700
     96 H61A        22.1520    68.2940    18.0150 h1         1 M5G       0.047700
     97 HO61        21.5190    70.2650    19.0910 ho         1 M5G       0.513000
     98 H41         24.0580    68.1480    16.4340 h1         1 M5G       0.065700
     99 H12         22.8330    66.9340    15.0650 h2         1 M5G       0.032700
    100 H22         20.7820    67.7750    14.0980 h1         1 M5G       0.061700
    101 HO22        21.6050    69.5260    12.8640 ho         1 M5G       0.520000
    102 H32         21.4780    65.5470    13.5330 h1         1 M5G       0.049700
    103 H13         19.6230    64.6620    12.8600 h2         1 M5G       0.062700
    104 H53         18.9140    68.2190    12.3650 h1         1 M5G       0.062700
    105 H63         16.8560    69.1200    13.4850 h1         1 M5G       0.059200
    106 H63A        16.6080    67.5490    14.2420 h1         1 M5G       0.059200
    107 HO63        18.8030    69.2600    14.6760 ho         1 M5G       0.496000
    108 H43         16.2940    66.7390    11.8620 h1         1 M5G       0.065700
    109 HO43        15.9660    68.8170    11.3110 ho         1 M5G       0.507000
    110 H33         18.7280    67.0780    10.0620 h1         1 M5G       0.104700
    111 HO33        16.4170    65.5340     9.6460 ho         1 M5G       0.519000
    112 H23         19.1240    64.6930    10.3490 h1         1 M5G       0.072700
    113 H14         18.7020    62.8180    11.7010 h2         1 M5G       0.013700
    114 H54         18.3810    60.8120    10.4740 h1         1 M5G       0.047700
    115 H64         17.5260    61.1380     8.2250 h1         1 M5G       0.057200
    116 H64A        17.1690    59.5440     8.8620 h1         1 M5G       0.057200
    117 HO64        15.0170    60.1810     9.0300 ho         1 M5G       0.492000
    118 H44         15.4550    60.6540    11.3540 h1         1 M5G       0.067700
    119 HO44        16.0810    58.5840    10.9920 ho         1 M5G       0.511000
    120 H34         18.0280    60.7200    12.9640 h1         1 M5G       0.033700
    121 HO34        16.2550    59.5580    13.8950 ho         1 M5G       0.458000
    122 H24         15.8160    62.8030    12.6990 h1         1 M5G       0.121700
    123 HN24        18.2880    62.7810    14.3230 hn         1 M5G       0.304500
    124 H84         18.5000    64.0990    16.0410 hc         1 M5G       0.063033
    125 H84A        17.6410    65.6320    15.8660 hc         1 M5G       0.063033
    126 H84B        16.9300    64.3350    16.8160 hc         1 M5G       0.063033
    127 H52         23.9860    65.4000    13.7090 h1         1 M5G       0.054700
    128 H42         22.9700    66.7230    11.1490 h1         1 M5G       0.080700
    129 HO42        22.1780    64.5970    10.8290 ho         1 M5G       0.521000
    130 H62         25.3720    64.9960    11.7030 h1         1 M5G       0.055200
    131 H62A        25.4590    66.7340    11.3880 h1         1 M5G       0.055200
    132 H15         27.3200    64.3180    12.5960 h2         1 M5G       0.081700
    133 H25         28.0550    65.2560    14.8590 h1         1 M5G       0.109700
    134 HO25        29.9710    64.5630    12.9090 ho         1 M5G       0.506000
    135 H35         28.2790    67.5760    14.2490 h1         1 M5G       0.104700
    136 H16         29.8610    68.9900    15.3310 h2         1 M5G       0.094700
    137 H26         32.1880    68.0520    15.8340 h1         1 M5G       0.041700
    138 HO26        32.1840    69.3320    17.8560 ho         1 M5G       0.524000
    139 H36         31.5740    66.0190    16.9930 h1         1 M5G       0.053700
    140 HO36        33.4610    66.9160    17.8120 ho         1 M5G       0.445000
    141 H46         30.3020    67.7870    19.1220 h1         1 M5G       0.109700
    142 HO46        30.4550    64.9840    18.8830 ho         1 M5G       0.498000
    143 H56         29.0200    65.8850    17.1120 h1         1 M5G       0.047700
    144 H66         27.8800    66.1650    19.3160 h1         1 M5G       0.043700
    145 H66A        27.7830    67.9050    19.0220 h1         1 M5G       0.043700
    146 HO66        25.8840    66.7950    18.2860 ho         1 M5G       0.498000
    147 H45         30.5530    66.7490    12.3950 h1         1 M5G       0.050700
    148 HO45        30.9310    68.8170    12.8970 ho         1 M5G       0.514000
    149 H55         27.7750    67.8420    11.7550 h1         1 M5G       0.074700
    150 H65         28.3260    67.1780     9.4330 h1         1 M5G       0.070200
    151 H65A        29.1990    68.5590    10.0730 h1         1 M5G       0.070200
    152 H17         30.0410    64.9550    10.2830 h2         1 M5G       0.094700
    153 H27         32.4900    65.6070    10.1080 h1         1 M5G       0.101700
    154 HO27        31.4990    63.4720     8.5600 ho         1 M5G       0.508000
    155 H37         32.3240    67.0450     8.1710 h1         1 M5G       0.044700
    156 HO37        34.0360    66.0430     6.9650 ho         1 M5G       0.452000
    157 H47         31.5930    64.5730     6.5470 h1         1 M5G       0.093700
    158 HO47        31.8180    67.2740     5.7910 ho         1 M5G       0.503000
    159 H57         29.9270    67.0300     7.2730 h1         1 M5G       0.056700
    160 H67         29.3340    65.9300     5.1370 h1         1 M5G       0.056700
    161 H67A        29.1740    64.3820     5.9630 h1         1 M5G       0.056700
    162 HO67        27.4720    65.4040     7.1830 ho         1 M5G       0.512000
@<TRIPOS>BOND
     1     1     2 2   
     2     2     3 1   
     3     2     4 1   
     4     3    85 1   
     5     3    86 1   
     6     3    87 1   
     7     4     5 1   
     8     4    88 1   
     9     5     6 1   
    10     5     8 1   
    11     5    89 1   
    12     6     7 1   
    13     6    14 1   
    14     6    90 1   
    15     7    91 1   
    16     8     9 1   
    17     8    10 1   
    18     8    92 1   
    19     9    93 1   
    20    10    11 1   
    21    11    12 1   
    22    11    14 1   
    23    11    94 1   
    24    12    13 1   
    25    12    95 1   
    26    12    96 1   
    27    13    97 1   
    28    14    15 1   
    29    14    98 1   
    30    15    16 1   
    31    16    17 1   
    32    16    46 1   
    33    16    99 1   
    34    17    18 1   
    35    17    19 1   
    36    17   100 1   
    37    18   101 1   
    38    19    20 1   
    39    19    48 1   
    40    19   102 1   
    41    20    21 1   
    42    21    22 1   
    43    21    30 1   
    44    21   103 1   
    45    22    23 1   
    46    23    24 1   
    47    23    26 1   
    48    23   104 1   
    49    24    25 1   
    50    24   105 1   
    51    24   106 1   
    52    25   107 1   
    53    26    27 1   
    54    26    28 1   
    55    26   108 1   
    56    27   109 1   
    57    28    29 1   
    58    28    30 1   
    59    28   110 1   
    60    29   111 1   
    61    30    31 1   
    62    30   112 1   
    63    31    32 1   
    64    32    33 1   
    65    32    41 1   
    66    32   113 1   
    67    33    34 1   
    68    34    35 1   
    69    34    37 1   
    70    34   114 1   
    71    35    36 1   
    72    35   115 1   
    73    35   116 1   
    74    36   117 1   
    75    37    38 1   
    76    37    39 1   
    77    37   118 1   
    78    38   119 1   
    79    39    40 1   
    80    39    41 1   
    81    39   120 1   
    82    40   121 1   
    83    41    42 1   
    84    41   122 1   
    85    42    43 1   
    86    42   123 1   
    87    43    44 2   
    88    43    45 1   
    89    45   124 1   
    90    45   125 1   
    91    45   126 1   
    92    46    47 1   
    93    47    48 1   
    94    47    50 1   
    95    47   127 1   
    96    48    49 1   
    97    48   128 1   
    98    49   129 1   
    99    50    51 1   
   100    50   130 1   
   101    50   131 1   
   102    51    52 1   
   103    52    53 1   
   104    52    71 1   
   105    52   132 1   
   106    53    54 1   
   107    53    55 1   
   108    53   133 1   
   109    54   134 1   
   110    55    56 1   
   111    55    68 1   
   112    55   135 1   
   113    56    57 1   
   114    57    58 1   
   115    57    67 1   
   116    57   136 1   
   117    58    59 1   
   118    58    60 1   
   119    58   137 1   
   120    59   138 1   
   121    60    61 1   
   122    60    62 1   
   123    60   139 1   
   124    61   140 1   
   125    62    63 1   
   126    62    64 1   
   127    62   141 1   
   128    63   142 1   
   129    64    65 1   
   130    64    67 1   
   131    64   143 1   
   132    65    66 1   
   133    65   144 1   
   134    65   145 1   
   135    66   146 1   
   136    68    69 1   
   137    68    70 1   
   138    68   147 1   
   139    69   148 1   
   140    70    71 1   
   141    70    72 1   
   142    70   149 1   
   143    72    73 1   
   144    72   150 1   
   145    72   151 1   
   146    73    74 1   
   147    74    75 1   
   148    74    82 1   
   149    74   152 1   
   150    75    76 1   
   151    75    77 1   
   152    75   153 1   
   153    76   154 1   
   154    77    78 1   
   155    77    79 1   
   156    77   155 1   
   157    78   156 1   
   158    79    80 1   
   159    79    81 1   
   160    79   157 1   
   161    80   158 1   
   162    81    82 1   
   163    81    83 1   
   164    81   159 1   
   165    83    84 1   
   166    83   160 1   
   167    83   161 1   
   168    84   162 1   
@<TRIPOS>SUBSTRUCTURE
     1 M5G         1 TEMP              0 ****  ****    0 ROOT
