@<TRIPOS>MOLECULE
M5H
   26    28     1     0     0
SMALL
bcc


@<TRIPOS>ATOM
      1 CAA          3.6570     0.8070    -0.1200 ca         1 M5H      -0.118000
      2 CAB          2.6870     1.8380     0.0300 ca         1 M5H      -0.152000
      3 CAC          3.3100    -0.5140    -0.1490 ca         1 M5H      -0.103000
      4 CAD          1.3550     1.5510     0.1500 ca         1 M5H      -0.071000
      5 CAE         -3.8470    -0.1540    -0.1510 c5         1 M5H       0.103300
      6 CAF         -3.3640     1.3270    -0.2340 c5         1 M5H       0.103300
      7 CAK         -1.6450    -0.0310     0.4190 c5         1 M5H       0.413900
      8 CAL         -0.2460    -0.4930     0.2160 cc         1 M5H      -0.123300
      9 CAM          1.9380    -0.8380    -0.0220 ca         1 M5H      -0.072000
     10 CAN          0.9660     0.1930     0.1230 ca         1 M5H      -0.125000
     11 NAG         -2.6300    -0.9660    -0.1090 n7         1 M5H      -0.790700
     12 NAH          0.0790    -1.7870     0.1330 na         1 M5H       0.078800
     13 NAI         -1.9010     1.2720    -0.1760 n7         1 M5H      -0.790700
     14 NAJ          1.3700    -2.0460    -0.0130 nc         1 M5H      -0.277400
     15 H1           4.6990     1.0850    -0.2130 ha         1 M5H       0.127000
     16 H2           3.0180     2.8680     0.0480 ha         1 M5H       0.128000
     17 H3           4.0530    -1.2920    -0.2620 ha         1 M5H       0.143000
     18 H4           0.6180     2.3350     0.2620 ha         1 M5H       0.146000
     19 H6          -4.4660    -0.4490    -0.9970 h1         1 M5H       0.062200
     20 H7          -3.6850     1.8240    -1.1480 h1         1 M5H       0.062200
     21 H8          -3.7550     1.9000     0.6090 h1         1 M5H       0.062200
     22 H9          -1.8350     0.0620     1.4970 h2         1 M5H       0.103700
     23 H10         -2.3680    -1.1850    -1.0660 hn         1 M5H       0.347800
     24 H12         -0.5760    -2.5550     0.1800 hn         1 M5H       0.329700
     25 H13         -1.5390     1.2620    -1.1240 hn         1 M5H       0.347800
     26 H5          -4.4320    -0.3110     0.7570 h1         1 M5H       0.062200
@<TRIPOS>BOND
     1     1     2 ar  
     2     1     3 ar  
     3     1    15 1   
     4     2     4 ar  
     5     2    16 1   
     6     3     9 ar  
     7     3    17 1   
     8     4    10 ar  
     9     4    18 1   
    10     5     6 1   
    11     5    11 1   
    12     5    19 1   
    13     5    26 1   
    14     6    13 1   
    15     6    20 1   
    16     6    21 1   
    17     7     8 1   
    18     7    11 1   
    19     7    13 1   
    20     7    22 1   
    21     8    10 2   
    22     8    12 1   
    23     9    10 ar  
    24     9    14 2   
    25    11    23 1   
    26    12    14 1   
    27    12    24 1   
    28    13    25 1   
@<TRIPOS>SUBSTRUCTURE
     1 M5H         1 TEMP              0 ****  ****    0 ROOT
