@<TRIPOS>MOLECULE
M5H
   26    28     1     0     0
SMALL
No Charge or Current Charge


@<TRIPOS>ATOM
      1 CAA          3.7030     0.8610    -0.0940 ca         1 M5H      -0.100000
      2 CAB          2.7230     1.8670     0.0720 ca         1 M5H      -0.134000
      3 CAC          3.3300    -0.4990    -0.1470 ca         1 M5H      -0.085000
      4 CAD          1.3620     1.5180     0.1840 ca         1 M5H      -0.053000
      5 CAE         -3.8880    -0.1240    -0.1000 c5         1 M5H       0.103300
      6 CAF         -3.4030     1.3340    -0.2750 c5         1 M5H       0.103300
      7 CAK         -1.6320    -0.0100     0.4530 c5         1 M5H       0.413900
      8 CAL         -0.2250    -0.5110     0.2040 cc         1 M5H      -0.123300
      9 CAM          1.9710    -0.8350    -0.0330 ca         1 M5H      -0.072000
     10 CAN          1.0310     0.1570     0.1230 ca         1 M5H      -0.125000
     11 NAG         -2.6260    -0.8990    -0.1420 n7         1 M5H      -0.845900
     12 NAH          0.0560    -1.8700     0.1070 na         1 M5H       0.028500
     13 NAI         -1.9240     1.2040    -0.3010 n7         1 M5H      -0.845900
     14 NAJ          1.4260    -2.1220    -0.0530 nc         1 M5H      -0.277400
     15 H1           4.7520     1.1370    -0.1800 ha         1 M5H       0.109000
     16 H2           3.0190     2.9130     0.1140 ha         1 M5H       0.110000
     17 H3           4.0830    -1.2750    -0.2700 ha         1 M5H       0.125000
     18 H4           0.5970     2.2800     0.3150 ha         1 M5H       0.128000
     19 H6          -4.5890    -0.4340    -0.8880 h1         1 M5H       0.062200
     20 H7          -3.7850     1.7960    -1.1960 h1         1 M5H       0.062200
     21 H8          -3.7310     1.9490     0.5750 h1         1 M5H       0.062200
     22 H9          -1.8280     0.1380     1.5290 h2         1 M5H       0.103700
     23 H10         -2.3460    -1.0390    -1.1160 hn         1 M5H       0.403000
     24 H12         -0.6230    -2.6250     0.1460 hn         1 M5H       0.380000
     25 H13         -1.6000     1.0360    -1.2560 hn         1 M5H       0.403000
     26 H5          -4.3900    -0.2460     0.8710 h1         1 M5H       0.062200
@<TRIPOS>BOND
     1     1     2 ar  
     2     1     3 ar  
     3     1    15 1   
     4     2     4 ar  
     5     2    16 1   
     6     3     9 ar  
     7     3    17 1   
     8     4    10 ar  
     9     4    18 1   
    10     5     6 1   
    11     5    11 1   
    12     5    19 1   
    13     5    26 1   
    14     6    13 1   
    15     6    20 1   
    16     6    21 1   
    17     7     8 1   
    18     7    11 1   
    19     7    13 1   
    20     7    22 1   
    21     8    10 2   
    22     8    12 1   
    23     9    10 ar  
    24     9    14 2   
    25    11    23 1   
    26    12    14 1   
    27    12    24 1   
    28    13    25 1   
@<TRIPOS>SUBSTRUCTURE
     1 M5H         1 TEMP              0 ****  ****    0 ROOT
