@<TRIPOS>MOLECULE
M5I
   31    32     1     0     0
SMALL
No Charge or Current Charge


@<TRIPOS>ATOM
      1 N1           9.7530    -0.5370    20.9470 ns         1 M5I      -0.150000
      2 C4           6.8450     0.8320    17.7830 ca         1 M5I       0.354900
      3 C5           6.9770     0.1730    19.0250 ca         1 M5I      -0.130300
      4 C6           8.0700    -0.8920    19.1890 c3         1 M5I      -0.101100
      5 C7           9.3960    -0.2590    19.6340 c          1 M5I       0.601100
      6 C8          10.8660    -0.1490    21.7430 ca         1 M5I      -0.012000
      7 C10         12.9870     1.0140    22.1220 ca         1 M5I      -0.075000
      8 C13         10.9070    -0.6120    23.0720 ca         1 M5I      -0.165000
      9 C9          11.9190     0.6700    21.2730 ca         1 M5I      -0.132000
     10 N            5.9210     1.7880    17.5360 nb         1 M5I      -0.661000
     11 C12         11.9730    -0.2680    23.9170 ca         1 M5I       0.153000
     12 C1           6.1010     0.5370    20.0760 ca         1 M5I      -0.024300
     13 C11         13.0140     0.5440    23.4450 ca         1 M5I      -0.129000
     14 C            6.1640    -0.1010    21.4600 c3         1 M5I      -0.056800
     15 C2           5.1430     1.5330    19.8120 ca         1 M5I      -0.164000
     16 O           10.0590     0.4310    18.8680 o          1 M5I      -0.568100
     17 C3           5.0860     2.1270    18.5410 ca         1 M5I       0.341900
     18 Cl          12.0030    -0.8580    25.5740 cl         1 M5I      -0.212000
     19 H1           9.0930    -1.1270    21.4360 hn         1 M5I       0.150000
     20 H3           7.7580    -1.6580    19.9080 hc         1 M5I       0.067700
     21 H4           8.2390    -1.3830    18.2240 hc         1 M5I       0.067700
     22 H5          13.7930     1.6450    21.7530 ha         1 M5I       0.122000
     23 H6          10.1080    -1.2420    23.4550 ha         1 M5I       0.125000
     24 H7          11.9310     1.0520    20.2570 ha         1 M5I       0.155000
     25 H8          13.8390     0.8090    24.1030 ha         1 M5I       0.133000
     26 H9           5.9740    -1.1800    21.4090 hc         1 M5I       0.049033
     27 H10          7.1440     0.0530    21.9250 hc         1 M5I       0.049033
     28 H11          5.4150     0.3270    22.1370 hc         1 M5I       0.049033
     29 H12          4.4440     1.8520    20.5790 ha         1 M5I       0.123000
     30 H13          4.3490     2.8990    18.3230 h4         1 M5I       0.021100
     31 H2           7.5050     0.5840    16.9520 h4         1 M5I       0.018100
@<TRIPOS>BOND
     1     1     5 1   
     2     1     6 1   
     3     1    19 1   
     4     2     3 ar  
     5     2    10 ar  
     6     2    31 1   
     7     3     4 1   
     8     3    12 ar  
     9     4     5 1   
    10     4    20 1   
    11     4    21 1   
    12     5    16 2   
    13     6     8 ar  
    14     6     9 ar  
    15     7     9 ar  
    16     7    13 ar  
    17     7    22 1   
    18     8    11 ar  
    19     8    23 1   
    20     9    24 1   
    21    10    17 ar  
    22    11    13 ar  
    23    11    18 1   
    24    12    14 1   
    25    12    15 ar  
    26    13    25 1   
    27    14    26 1   
    28    14    27 1   
    29    14    28 1   
    30    15    17 ar  
    31    15    29 1   
    32    17    30 1   
@<TRIPOS>SUBSTRUCTURE
     1 M5I         1 TEMP              0 ****  ****    0 ROOT
