@<TRIPOS>MOLECULE
M5I
   31    32     1     0     0
SMALL
abcg2


@<TRIPOS>ATOM
      1 N1           9.7790    -0.6450    21.0950 ns         1 M5I      -0.150000
      2 C4           6.6600     0.3900    17.6620 ca         1 M5I       0.354900
      3 C5           6.9080     0.1530    19.0100 ca         1 M5I      -0.130300
      4 C6           8.0260    -0.7650    19.4200 c3         1 M5I      -0.101100
      5 C7           9.2040    -0.0130    20.0350 c          1 M5I       0.601100
      6 C8          10.8980    -0.2680    21.8530 ca         1 M5I      -0.012000
      7 C10         12.7630     1.1510    22.4030 ca         1 M5I      -0.075000
      8 C13         11.2330    -1.0990    22.9290 ca         1 M5I      -0.165000
      9 C9          11.6720     0.8670    21.5900 ca         1 M5I      -0.132000
     10 N            5.7000     1.1950    17.1980 nb         1 M5I      -0.661000
     11 C12         12.3240    -0.7840    23.7180 ca         1 M5I       0.153000
     12 C1           6.0980     0.7990    19.9560 ca         1 M5I      -0.024300
     13 C11         13.1070     0.3370    23.4750 ca         1 M5I      -0.129000
     14 C            6.3040     0.6120    21.4300 c3         1 M5I      -0.056800
     15 C2           5.0940     1.6340    19.4730 ca         1 M5I      -0.164000
     16 O            9.5920     1.0540    19.5760 o          1 M5I      -0.568100
     17 C3           4.9330     1.8050    18.1050 ca         1 M5I       0.341900
     18 CL          12.7220    -1.8320    25.0650 cl         1 M5I      -0.212000
     19 H1           9.3330    -1.5000    21.3910 hn         1 M5I       0.150000
     20 H3           7.6650    -1.5350    20.1040 hc         1 M5I       0.067700
     21 H4           8.4190    -1.2780    18.5380 hc         1 M5I       0.067700
     22 H5          13.3600     2.0300    22.1950 ha         1 M5I       0.122000
     23 H6          10.6400    -1.9790    23.1410 ha         1 M5I       0.125000
     24 H7          11.4200     1.5100    20.7650 ha         1 M5I       0.155000
     25 H8          13.9550     0.5640    24.1040 ha         1 M5I       0.133000
     26 H9           6.3230    -0.4470    21.6980 hc         1 M5I       0.049033
     27 H10          7.2600     1.0380    21.7470 hc         1 M5I       0.049033
     28 H11          5.5130     1.1000    21.9970 hc         1 M5I       0.049033
     29 H12          4.4400     2.1540    20.1620 ha         1 M5I       0.123000
     30 H13          4.1530     2.4570    17.7240 h4         1 M5I       0.021100
     31 H2           7.2770    -0.1020    16.9160 h4         1 M5I       0.018100
@<TRIPOS>BOND
     1     1     5 1   
     2     1     6 1   
     3     1    19 1   
     4     2     3 ar  
     5     2    10 ar  
     6     2    31 1   
     7     3     4 1   
     8     3    12 ar  
     9     4     5 1   
    10     4    20 1   
    11     4    21 1   
    12     5    16 2   
    13     6     8 ar  
    14     6     9 ar  
    15     7     9 ar  
    16     7    13 ar  
    17     7    22 1   
    18     8    11 ar  
    19     8    23 1   
    20     9    24 1   
    21    10    17 ar  
    22    11    13 ar  
    23    11    18 1   
    24    12    14 1   
    25    12    15 ar  
    26    13    25 1   
    27    14    26 1   
    28    14    27 1   
    29    14    28 1   
    30    15    17 ar  
    31    15    29 1   
    32    17    30 1   
@<TRIPOS>SUBSTRUCTURE
     1 M5I         1 TEMP              0 ****  ****    0 ROOT
