@<TRIPOS>MOLECULE
M5J
   38    39     1     0     0
SMALL
No Charge or Current Charge


@<TRIPOS>ATOM
      1 C1           3.3920    -0.3660    -1.2870 ca         1 M5J      -0.084000
      2 C10         -1.8960     1.9440     0.6650 c5         1 M5J       0.108000
      3 C11          0.1960     1.6540    -0.5670 c5         1 M5J       0.151000
      4 C12         -2.7900    -2.3920    -0.8790 c3         1 M5J      -0.082100
      5 C13         -3.9940    -0.4260     0.1250 c3         1 M5J      -0.082100
      6 C14         -2.0280    -1.4830     1.3430 c3         1 M5J      -0.082100
      7 C15         -2.5950    -1.0860    -0.0490 c3         1 M5J      -0.112000
      8 C2           2.3180     0.5330    -1.4160 ca         1 M5J      -0.110000
      9 C3           3.5210    -1.1410    -0.1230 ca         1 M5J      -0.150000
     10 C4           1.5050    -0.1150     0.7780 ca         1 M5J      -0.139000
     11 C5           1.3620     0.6720    -0.3890 ca         1 M5J      -0.048300
     12 C6           2.5750    -1.0130     0.9040 ca         1 M5J       0.166000
     13 C8          -1.0980     3.2760     0.5960 c5         1 M5J      -0.099400
     14 C9           0.3620     2.7810     0.4860 c5         1 M5J      -0.089400
     15 F18          2.6950    -1.7590     2.0240 f          1 M5J      -0.185000
     16 N16         -1.0590     1.0080    -0.1230 n          1 M5J      -0.419800
     17 O17         -1.1450    -0.4160    -1.8970 o          1 M5J      -0.599100
     18 H1           4.1220    -0.4610    -2.0880 ha         1 M5J       0.116000
     19 H2          -1.9990     1.6010     1.7020 h1         1 M5J       0.048700
     20 H3          -2.8950     2.0770     0.2330 h1         1 M5J       0.048700
     21 H4           0.1140     2.0400    -1.5930 h1         1 M5J       0.070700
     22 H5          -3.4660    -3.0890    -0.3680 hc         1 M5J       0.040033
     23 H6          -3.2190    -2.1740    -1.8640 hc         1 M5J       0.040033
     24 H7          -1.8340    -2.9090    -1.0300 hc         1 M5J       0.040033
     25 H8          -4.7470    -1.1760     0.3970 hc         1 M5J       0.040033
     26 H9          -4.0020     0.3220     0.9240 hc         1 M5J       0.040033
     27 H10         -4.3180     0.0520    -0.8070 hc         1 M5J       0.040033
     28 H11         -1.0430    -1.9540     1.2400 hc         1 M5J       0.040033
     29 H12         -1.9170    -0.6150     2.0020 hc         1 M5J       0.040033
     30 H13         -2.6920    -2.1960     1.8470 hc         1 M5J       0.040033
     31 H14          2.2270     1.1260    -2.3240 ha         1 M5J       0.117000
     32 H15          4.3480    -1.8390    -0.0170 ha         1 M5J       0.130000
     33 H16          0.7850    -0.0350     1.5870 ha         1 M5J       0.130000
     34 H17         -1.3820     3.8560    -0.2900 hc         1 M5J       0.055700
     35 H18         -1.2680     3.9120     1.4710 hc         1 M5J       0.055700
     36 H19          0.7200     2.4120     1.4540 hc         1 M5J       0.057200
     37 H20          1.0540     3.5640     0.1550 hc         1 M5J       0.057200
     38 C7          -1.5800    -0.1300    -0.7860 c          1 M5J       0.608100
@<TRIPOS>BOND
     1     1     8 ar  
     2     1     9 ar  
     3     1    18 1   
     4     2    13 1   
     5     2    16 1   
     6     2    19 1   
     7     2    20 1   
     8     3    11 1   
     9     3    14 1   
    10     3    16 1   
    11     3    21 1   
    12     4     7 1   
    13     4    22 1   
    14     4    23 1   
    15     4    24 1   
    16     5     7 1   
    17     5    25 1   
    18     5    26 1   
    19     5    27 1   
    20     6     7 1   
    21     6    28 1   
    22     6    29 1   
    23     6    30 1   
    24     7    38 1   
    25     8    11 ar  
    26     8    31 1   
    27     9    12 ar  
    28     9    32 1   
    29    10    11 ar  
    30    10    12 ar  
    31    10    33 1   
    32    12    15 1   
    33    13    14 1   
    34    13    34 1   
    35    13    35 1   
    36    14    36 1   
    37    14    37 1   
    38    16    38 1   
    39    17    38 2   
@<TRIPOS>SUBSTRUCTURE
     1 M5J         1 TEMP              0 ****  ****    0 ROOT
