@<TRIPOS>MOLECULE
M5J
   38    39     1     0     0
SMALL
bcc


@<TRIPOS>ATOM
      1 C1           3.5240    -0.1180    -1.3790 ca         1 M5J      -0.102000
      2 C10         -1.5840     1.6290     1.1090 c5         1 M5J       0.108000
      3 C11          0.1760     1.4500    -0.5330 c5         1 M5J       0.151000
      4 C12         -2.8410    -2.3770    -0.7170 c3         1 M5J      -0.082100
      5 C13         -4.0150    -0.2310    -0.3410 c3         1 M5J      -0.082100
      6 C14         -2.6090    -1.2780     1.4870 c3         1 M5J      -0.082100
      7 C15         -2.7350    -1.0180    -0.0180 c3         1 M5J      -0.112000
      8 C2           2.3510     0.6190    -1.4770 ca         1 M5J      -0.128000
      9 C3           3.7760    -0.9050    -0.2640 ca         1 M5J      -0.168000
     10 C4           1.6560    -0.1930     0.6720 ca         1 M5J      -0.157000
     11 C5           1.4100     0.5880    -0.4540 ca         1 M5J      -0.048300
     12 C6           2.8250    -0.9220     0.7390 ca         1 M5J       0.130900
     13 C8          -1.0890     3.0250     0.7690 c5         1 M5J      -0.099400
     14 C9           0.3220     2.7500     0.2720 c5         1 M5J      -0.089400
     15 F18          3.0480    -1.6780     1.8290 f          1 M5J      -0.149900
     16 N16         -1.0100     0.8120     0.0420 n          1 M5J      -0.486800
     17 O17         -0.9630    -0.6860    -1.6010 o          1 M5J      -0.599100
     18 H1           4.2490    -0.0880    -2.1820 ha         1 M5J       0.134000
     19 H2          -1.2060     1.3170     2.0870 h1         1 M5J       0.048700
     20 H3          -2.6670     1.5680     1.1360 h1         1 M5J       0.048700
     21 H4          -0.0140     1.6900    -1.5840 h1         1 M5J       0.070700
     22 H5          -3.6960    -2.9200    -0.3110 hc         1 M5J       0.040033
     23 H6          -2.9950    -2.2730    -1.7900 hc         1 M5J       0.040033
     24 H7          -1.9530    -2.9900    -0.5600 hc         1 M5J       0.040033
     25 H8          -4.8840    -0.7920     0.0080 hc         1 M5J       0.040033
     26 H9          -4.0580     0.7500     0.1290 hc         1 M5J       0.040033
     27 H10         -4.1240    -0.0900    -1.4180 hc         1 M5J       0.040033
     28 H11         -1.6630    -1.7680     1.7270 hc         1 M5J       0.040033
     29 H12         -2.6830    -0.3830     2.0990 hc         1 M5J       0.040033
     30 H13         -3.4110    -1.9460     1.8050 hc         1 M5J       0.040033
     31 H14          2.1650     1.2210    -2.3570 ha         1 M5J       0.135000
     32 H15          4.6810    -1.4900    -0.1780 ha         1 M5J       0.148000
     33 H16          0.9460    -0.2420     1.4880 ha         1 M5J       0.148000
     34 H17         -1.7020     3.4570    -0.0250 hc         1 M5J       0.055700
     35 H18         -1.1200     3.6950     1.6280 hc         1 M5J       0.055700
     36 H19          0.9940     2.6010     1.1200 hc         1 M5J       0.057200
     37 H20          0.7390     3.5500    -0.3390 hc         1 M5J       0.057200
     38 C7          -1.5100    -0.2810    -0.5830 c          1 M5J       0.675100
@<TRIPOS>BOND
     1     1     8 ar  
     2     1     9 ar  
     3     1    18 1   
     4     2    13 1   
     5     2    16 1   
     6     2    19 1   
     7     2    20 1   
     8     3    11 1   
     9     3    14 1   
    10     3    16 1   
    11     3    21 1   
    12     4     7 1   
    13     4    22 1   
    14     4    23 1   
    15     4    24 1   
    16     5     7 1   
    17     5    25 1   
    18     5    26 1   
    19     5    27 1   
    20     6     7 1   
    21     6    28 1   
    22     6    29 1   
    23     6    30 1   
    24     7    38 1   
    25     8    11 ar  
    26     8    31 1   
    27     9    12 ar  
    28     9    32 1   
    29    10    11 ar  
    30    10    12 ar  
    31    10    33 1   
    32    12    15 1   
    33    13    14 1   
    34    13    34 1   
    35    13    35 1   
    36    14    36 1   
    37    14    37 1   
    38    16    38 1   
    39    17    38 2   
@<TRIPOS>SUBSTRUCTURE
     1 M5J         1 TEMP              0 ****  ****    0 ROOT
