@<TRIPOS>MOLECULE
M5K
   22    23     1     0     0
SMALL
bcc


@<TRIPOS>ATOM
      1 C01          0.4770     2.8660    -0.0160 c3         1 M5K      -0.056800
      2 C02          0.6170     1.3770    -0.0190 ca         1 M5K       0.006700
      3 C03          1.8440     0.7880    -0.0140 ca         1 M5K      -0.298300
      4 C12         -0.5360     0.5300    -0.0320 ca         1 M5K      -0.189300
      5 C04          1.9570    -0.6360    -0.0190 ca         1 M5K       0.685200
      6 N05          3.1930    -1.1930    -0.0610 nv         1 M5K      -0.959500
      7 N06          0.9140    -1.4300    -0.0240 nb         1 M5K      -0.762000
      8 C08         -1.4430    -1.7260    -0.0420 ca         1 M5K      -0.187300
      9 C07         -0.3200    -0.8700    -0.0330 ca         1 M5K       0.455600
     10 C10         -2.9300     0.1730    -0.0500 ca         1 M5K      -0.149000
     11 C11         -1.8550     1.0270    -0.0400 ca         1 M5K      -0.094000
     12 C09         -2.7170    -1.2160    -0.0500 ca         1 M5K      -0.109000
     13 H011        -0.0620     3.2130    -0.8990 hc         1 M5K       0.048367
     14 H012        -0.0820     3.2090     0.8560 hc         1 M5K       0.048367
     15 H013         1.4510     3.3520    -0.0040 hc         1 M5K       0.048367
     16 H03          2.7430     1.3930    -0.0060 ha         1 M5K       0.135000
     17 H051         3.9850    -0.6370     0.2120 hn         1 M5K       0.422300
     18 H052         3.2670    -2.1770     0.1390 hn         1 M5K       0.422300
     19 H08         -1.2750    -2.7960    -0.0420 ha         1 M5K       0.145000
     20 H09         -3.5640    -1.8890    -0.0580 ha         1 M5K       0.130000
     21 H10         -3.9380     0.5660    -0.0560 ha         1 M5K       0.131000
     22 H11         -2.0210     2.0970    -0.0390 ha         1 M5K       0.127000
@<TRIPOS>BOND
     1     1     2 1   
     2     1    13 1   
     3     1    14 1   
     4     1    15 1   
     5     2     3 ar  
     6     2     4 ar  
     7     3     5 ar  
     8     3    16 1   
     9     4     9 ar  
    10     4    11 ar  
    11     5     6 1   
    12     5     7 ar  
    13     6    17 1   
    14     6    18 1   
    15     7     9 ar  
    16     8     9 ar  
    17     8    12 ar  
    18     8    19 1   
    19    10    11 ar  
    20    10    12 ar  
    21    10    21 1   
    22    11    22 1   
    23    12    20 1   
@<TRIPOS>SUBSTRUCTURE
     1 M5K         1 TEMP              0 ****  ****    0 ROOT
