@<TRIPOS>MOLECULE
M5K
   22    23     1     0     0
SMALL
No Charge or Current Charge


@<TRIPOS>ATOM
      1 C01          0.4690     2.9180    -0.0190 c3         1 M5K      -0.056800
      2 C02          0.6060     1.3990    -0.0340 ca         1 M5K       0.006700
      3 C03          1.8820     0.8170    -0.0420 ca         1 M5K      -0.215000
      4 C12         -0.5110     0.5270    -0.0380 ca         1 M5K      -0.124000
      5 C04          1.9810    -0.5730    -0.0580 ca         1 M5K       0.619900
      6 N05          3.1390    -1.2350    -0.0580 nv         1 M5K      -1.069900
      7 N06          0.9580    -1.4110    -0.0580 nb         1 M5K      -0.762000
      8 C08         -1.3970    -1.7450    -0.0540 ca         1 M5K      -0.104000
      9 C07         -0.2860    -0.8800    -0.0510 ca         1 M5K       0.325000
     10 C10         -2.9260     0.1410    -0.0340 ca         1 M5K      -0.131000
     11 C11         -1.8350     1.0240    -0.0300 ca         1 M5K      -0.076000
     12 C09         -2.7090    -1.2440    -0.0460 ca         1 M5K      -0.091000
     13 H011        -0.0740     3.2740    -0.9030 hc         1 M5K       0.048367
     14 H012        -0.0700     3.2580     0.8730 hc         1 M5K       0.048367
     15 H013         1.4480     3.4140    -0.0170 hc         1 M5K       0.048367
     16 H03          2.7790     1.4280    -0.0400 ha         1 M5K       0.117000
     17 H051         3.9510    -0.7460     0.3020 hn         1 M5K       0.477500
     18 H052         3.0650    -2.2190     0.1710 hn         1 M5K       0.477500
     19 H08         -1.2360    -2.8200    -0.0630 ha         1 M5K       0.127000
     20 H09         -3.5540    -1.9290    -0.0490 ha         1 M5K       0.112000
     21 H10         -3.9410     0.5310    -0.0280 ha         1 M5K       0.113000
     22 H11         -2.0360     2.0930    -0.0210 ha         1 M5K       0.109000
@<TRIPOS>BOND
     1     1     2 1   
     2     1    13 1   
     3     1    14 1   
     4     1    15 1   
     5     2     3 ar  
     6     2     4 ar  
     7     3     5 ar  
     8     3    16 1   
     9     4     9 ar  
    10     4    11 ar  
    11     5     6 1   
    12     5     7 ar  
    13     6    17 1   
    14     6    18 1   
    15     7     9 ar  
    16     8     9 ar  
    17     8    12 ar  
    18     8    19 1   
    19    10    11 ar  
    20    10    12 ar  
    21    10    21 1   
    22    11    22 1   
    23    12    20 1   
@<TRIPOS>SUBSTRUCTURE
     1 M5K         1 TEMP              0 ****  ****    0 ROOT
