@<TRIPOS>MOLECULE
M5L
   40    41     1     0     0
SMALL
abcg2


@<TRIPOS>ATOM
      1 C02        -14.1250    -1.0900   -39.0310 ca         1 M5L       0.601900
      2 C03        -14.6630    -0.9880   -40.3270 ca         1 M5L      -0.232000
      3 C04        -13.8310    -0.6400   -41.3710 ca         1 M5L       0.001700
      4 C05        -12.4790    -0.4090   -41.0870 ca         1 M5L      -0.217000
      5 C06        -12.0360    -0.5230   -39.7820 ca         1 M5L       0.399300
      6 C07        -14.3460    -0.5080   -42.7710 c3         1 M5L      -0.053800
      7 C08        -10.5970    -0.2660   -39.4300 c3         1 M5L      -0.125700
      8 C09         -9.9000    -1.4760   -38.8070 c3         1 M5L      -0.072400
      9 C10         -8.4420    -1.1600   -38.5010 c3         1 M5L       0.168800
     10 C12         -6.4830    -1.7020   -37.2450 c6         1 M5L       0.165800
     11 C13         -5.8240    -2.7200   -36.3240 c6         1 M5L      -0.126900
     12 C14         -5.6640    -4.0420   -37.0290 c6         1 M5L       0.180000
     13 C15         -6.9570    -4.5120   -37.6480 c6         1 M5L      -0.126900
     14 C16         -7.5680    -3.4130   -38.5110 c6         1 M5L       0.165800
     15 F17         -4.7050    -3.9250   -38.0080 f          1 M5L      -0.126000
     16 F18         -5.1750    -4.9870   -36.1630 f          1 M5L      -0.126000
     17 N01        -12.8440    -0.8550   -38.7720 nb         1 M5L      -0.752000
     18 N02        -14.9110    -1.4800   -37.9850 nv         1 M5L      -1.055900
     19 N11         -7.7550    -2.1930   -37.7460 n3         1 M5L      -0.718600
     20 H1         -15.7160    -1.1780   -40.4950 ha         1 M5L       0.119000
     21 H2         -11.7900    -0.1340   -41.8750 ha         1 M5L       0.120000
     22 H3         -14.1730     0.4980   -43.1540 hc         1 M5L       0.046700
     23 H4         -13.8290    -1.1970   -43.4420 hc         1 M5L       0.046700
     24 H5         -15.4140    -0.7140   -42.8320 hc         1 M5L       0.046700
     25 H6         -10.0550     0.0470   -40.3260 hc         1 M5L       0.049700
     26 H7         -10.5500     0.5730   -38.7280 hc         1 M5L       0.049700
     27 H8         -10.4100    -1.7600   -37.8840 hc         1 M5L       0.058200
     28 H9          -9.9830    -2.3240   -39.4920 hc         1 M5L       0.058200
     29 H10         -7.9130    -0.9290   -39.4420 h1         1 M5L       0.029200
     30 H11         -8.4120    -0.2440   -37.9040 h1         1 M5L       0.029200
     31 H12         -5.7940    -1.4380   -38.0650 h1         1 M5L       0.041950
     32 H13         -6.6580    -0.7840   -36.6800 h1         1 M5L       0.041950
     33 H14         -6.4530    -2.8720   -35.4440 hc         1 M5L       0.073700
     34 H15         -4.8560    -2.3500   -35.9810 hc         1 M5L       0.073700
     35 H16         -7.6500    -4.7670   -36.8440 hc         1 M5L       0.073700
     36 H17         -6.7920    -5.4120   -38.2440 hc         1 M5L       0.073700
     37 H18         -6.9410    -3.2410   -39.4020 h1         1 M5L       0.041950
     38 H19         -8.5320    -3.7680   -38.8750 h1         1 M5L       0.041950
     39 H20        -14.5580    -1.2770   -37.0640 hn         1 M5L       0.468500
     40 H21        -15.9060    -1.3610   -38.0800 hn         1 M5L       0.468500
@<TRIPOS>BOND
     1     1     2 ar  
     2     1    17 ar  
     3     1    18 1   
     4     2     3 ar  
     5     2    20 1   
     6     3     4 ar  
     7     3     6 1   
     8     4     5 ar  
     9     4    21 1   
    10     5     7 1   
    11     5    17 ar  
    12     6    22 1   
    13     6    23 1   
    14     6    24 1   
    15     7     8 1   
    16     7    25 1   
    17     7    26 1   
    18     8     9 1   
    19     8    27 1   
    20     8    28 1   
    21     9    19 1   
    22     9    29 1   
    23     9    30 1   
    24    10    11 1   
    25    10    19 1   
    26    10    31 1   
    27    10    32 1   
    28    11    12 1   
    29    11    33 1   
    30    11    34 1   
    31    12    13 1   
    32    12    15 1   
    33    12    16 1   
    34    13    14 1   
    35    13    35 1   
    36    13    36 1   
    37    14    19 1   
    38    14    37 1   
    39    14    38 1   
    40    18    39 1   
    41    18    40 1   
@<TRIPOS>SUBSTRUCTURE
     1 M5L         1 TEMP              0 ****  ****    0 ROOT
