@<TRIPOS>MOLECULE
M5L
   40    41     1     0     0
SMALL
No Charge or Current Charge


@<TRIPOS>ATOM
      1 C02        -14.4140    -0.5200   -39.0470 ca         1 M5L       0.601900
      2 C03        -14.7350    -0.9220   -40.3450 ca         1 M5L      -0.232000
      3 C04        -13.6960    -1.0590   -41.2770 ca         1 M5L       0.001700
      4 C05        -12.3930    -0.7740   -40.8360 ca         1 M5L      -0.217000
      5 C06        -12.1840    -0.3710   -39.5020 ca         1 M5L       0.399300
      6 C07        -13.9670    -1.4930   -42.7070 c3         1 M5L      -0.053800
      7 C08        -10.7820    -0.0620   -38.9960 c3         1 M5L      -0.125700
      8 C09         -9.9690    -1.3410   -38.6870 c3         1 M5L      -0.072400
      9 C10         -8.5380    -1.0370   -38.1840 c3         1 M5L       0.168800
     10 C12         -6.5190    -1.8190   -37.0210 c6         1 M5L       0.165800
     11 C13         -5.7980    -3.0340   -36.3960 c6         1 M5L      -0.126900
     12 C14         -5.5320    -4.1160   -37.4590 c6         1 M5L       0.180000
     13 C15         -6.8080    -4.4830   -38.2420 c6         1 M5L      -0.126900
     14 C16         -7.4970    -3.2170   -38.7990 c6         1 M5L       0.165800
     15 F17         -4.5410    -3.6690   -38.3530 f          1 M5L      -0.126000
     16 F18         -5.0160    -5.2670   -36.8380 f          1 M5L      -0.126000
     17 N01        -13.1930    -0.2440   -38.6120 nb         1 M5L      -0.752000
     18 N02        -15.3190    -0.3480   -38.0820 nv         1 M5L      -1.055900
     19 N11         -7.7730    -2.2220   -37.7180 n3         1 M5L      -0.718600
     20 H1         -15.7650    -1.1240   -40.6210 ha         1 M5L       0.119000
     21 H2         -11.5490    -0.8610   -41.5140 ha         1 M5L       0.120000
     22 H3         -14.1230    -0.6230   -43.3560 hc         1 M5L       0.046700
     23 H4         -13.1280    -2.0700   -43.1150 hc         1 M5L       0.046700
     24 H5         -14.8620    -2.1230   -42.7700 hc         1 M5L       0.046700
     25 H6         -10.2470     0.5300   -39.7480 hc         1 M5L       0.049700
     26 H7         -10.8300     0.5600   -38.0940 hc         1 M5L       0.049700
     27 H8         -10.4980    -1.9280   -37.9270 hc         1 M5L       0.058200
     28 H9          -9.9210    -1.9530   -39.5950 hc         1 M5L       0.058200
     29 H10         -7.9850    -0.5240   -38.9820 h1         1 M5L       0.029200
     30 H11         -8.6300    -0.3250   -37.3520 h1         1 M5L       0.029200
     31 H12         -5.8370    -1.3170   -37.7240 h1         1 M5L       0.041950
     32 H13         -6.7410    -1.0970   -36.2210 h1         1 M5L       0.041950
     33 H14         -6.4220    -3.4500   -35.5930 hc         1 M5L       0.073700
     34 H15         -4.8560    -2.7150   -35.9320 hc         1 M5L       0.073700
     35 H16         -7.5060    -5.0120   -37.5800 hc         1 M5L       0.073700
     36 H17         -6.5660    -5.1720   -39.0620 hc         1 M5L       0.073700
     37 H18         -6.8580    -2.7680   -39.5750 h1         1 M5L       0.041950
     38 H19         -8.4270    -3.5330   -39.2910 h1         1 M5L       0.041950
     39 H20        -14.9850     0.1660   -37.2770 hn         1 M5L       0.468500
     40 H21        -16.2790    -0.1820   -38.3620 hn         1 M5L       0.468500
@<TRIPOS>BOND
     1     1     2 ar  
     2     1    17 ar  
     3     1    18 1   
     4     2     3 ar  
     5     2    20 1   
     6     3     4 ar  
     7     3     6 1   
     8     4     5 ar  
     9     4    21 1   
    10     5     7 1   
    11     5    17 ar  
    12     6    22 1   
    13     6    23 1   
    14     6    24 1   
    15     7     8 1   
    16     7    25 1   
    17     7    26 1   
    18     8     9 1   
    19     8    27 1   
    20     8    28 1   
    21     9    19 1   
    22     9    29 1   
    23     9    30 1   
    24    10    11 1   
    25    10    19 1   
    26    10    31 1   
    27    10    32 1   
    28    11    12 1   
    29    11    33 1   
    30    11    34 1   
    31    12    13 1   
    32    12    15 1   
    33    12    16 1   
    34    13    14 1   
    35    13    35 1   
    36    13    36 1   
    37    14    19 1   
    38    14    37 1   
    39    14    38 1   
    40    18    39 1   
    41    18    40 1   
@<TRIPOS>SUBSTRUCTURE
     1 M5L         1 TEMP              0 ****  ****    0 ROOT
