@<TRIPOS>MOLECULE
M5N
   30    31     1     0     0
SMALL
bcc


@<TRIPOS>ATOM
      1 CAA          2.0810     2.1100     1.0690 c3         1 M5N      -0.083100
      2 CAB          3.4070     0.7990    -0.6290 c3         1 M5N      -0.083100
      3 CAD         -2.4290     1.8860    -0.2680 c6         1 M5N      -0.080400
      4 CAE         -3.2660     0.6250    -0.4100 c6         1 M5N      -0.073400
      5 CAF         -0.9680     1.6180    -0.5950 c6         1 M5N      -0.054400
      6 CAG         -2.7200    -0.4860     0.4890 c6         1 M5N      -0.134700
      7 CAJ          0.5330    -2.1100    -0.1010 c          1 M5N       0.806900
      8 CAK         -0.3820     0.4920     0.2880 c6         1 M5N      -0.282300
      9 CAL          1.0340     0.1500    -0.0700 c2         1 M5N       0.500300
     10 CAM          2.0230     1.2750    -0.2170 c3         1 M5N      -0.112000
     11 CAN         -1.2640    -0.7170     0.2580 c2         1 M5N       0.497300
     12 NAH          1.4320    -1.0490    -0.2460 ne         1 M5N      -0.653100
     13 NAI         -0.8400    -1.9050     0.0620 ne         1 M5N      -0.651100
     14 H1           2.7960     2.9220     0.9440 hc         1 M5N       0.042867
     15 H2           1.1210     2.5600     1.3220 hc         1 M5N       0.042867
     16 H3           2.4070     1.5050     1.9160 hc         1 M5N       0.042867
     17 H4           3.8570     0.1640     0.1350 hc         1 M5N       0.042867
     18 H5           3.3810     0.2350    -1.5600 hc         1 M5N       0.042867
     19 H6           4.0590     1.6610    -0.7770 hc         1 M5N       0.042867
     20 H7          -2.8050     2.6700    -0.9270 hc         1 M5N       0.048200
     21 H8          -2.5100     2.2660     0.7550 hc         1 M5N       0.048200
     22 H9          -4.3060     0.8180    -0.1480 hc         1 M5N       0.052700
     23 H10         -3.2590     0.2900    -1.4510 hc         1 M5N       0.052700
     24 H11         -0.8650     1.3350    -1.6460 hc         1 M5N       0.052700
     25 H12         -0.3830     2.5260    -0.4500 hc         1 M5N       0.052700
     26 H13         -2.8450    -0.1850     1.5360 hc         1 M5N       0.071700
     27 H14         -3.2610    -1.4220     0.3510 hc         1 M5N       0.071700
     28 H15         -0.3890     0.8550     1.3260 hc         1 M5N       0.096700
     29 H16          1.6380     1.9260    -1.0100 hc         1 M5N       0.060700
     30 OAC          0.9560    -3.2420    -0.1310 o          1 M5N      -0.461100
@<TRIPOS>BOND
     1     1    10 1   
     2     1    14 1   
     3     1    15 1   
     4     1    16 1   
     5     2    10 1   
     6     2    17 1   
     7     2    18 1   
     8     2    19 1   
     9     3     4 1   
    10     3     5 1   
    11     3    20 1   
    12     3    21 1   
    13     4     6 1   
    14     4    22 1   
    15     4    23 1   
    16     5     8 1   
    17     5    24 1   
    18     5    25 1   
    19     6    11 1   
    20     6    26 1   
    21     6    27 1   
    22     7    12 1   
    23     7    13 1   
    24     7    30 2   
    25     8     9 1   
    26     8    11 1   
    27     8    28 1   
    28     9    10 1   
    29     9    12 2   
    30    10    29 1   
    31    11    13 2   
@<TRIPOS>SUBSTRUCTURE
     1 M5N         1 TEMP              0 ****  ****    0 ROOT
