@<TRIPOS>MOLECULE
M5N
   30    31     1     0     0
SMALL
No Charge or Current Charge


@<TRIPOS>ATOM
      1 CAA          2.2790     2.0350     1.1390 c3         1 M5N      -0.083100
      2 CAB          3.3780     0.8480    -0.8280 c3         1 M5N      -0.083100
      3 CAD         -2.5090     1.9100    -0.2720 c6         1 M5N      -0.080400
      4 CAE         -3.3070     0.6190    -0.5400 c6         1 M5N      -0.073400
      5 CAF         -1.0010     1.6830    -0.5220 c6         1 M5N      -0.054400
      6 CAG         -2.7790    -0.5300     0.3480 c6         1 M5N      -0.134700
      7 CAJ          0.5820    -2.1350     0.1970 c          1 M5N       0.806900
      8 CAK         -0.4240     0.5080     0.3380 c6         1 M5N      -0.282300
      9 CAL          1.0060     0.1510    -0.0320 c2         1 M5N       0.500300
     10 CAM          2.0290     1.2910    -0.1970 c3         1 M5N      -0.112000
     11 CAN         -1.2770    -0.7370     0.2130 c2         1 M5N       0.497300
     12 NAH          1.4080    -1.0750    -0.1330 ne         1 M5N      -0.653100
     13 NAI         -0.7820    -1.9220     0.0920 ne         1 M5N      -0.651100
     14 H1           2.9970     2.8520     1.0010 hc         1 M5N       0.042867
     15 H2           1.3520     2.4710     1.5290 hc         1 M5N       0.042867
     16 H3           2.6810     1.3500     1.8950 hc         1 M5N       0.042867
     17 H4           3.9110     0.1460    -0.1740 hc         1 M5N       0.042867
     18 H5           3.2140     0.3620    -1.7970 hc         1 M5N       0.042867
     19 H6           4.0300     1.7140    -0.9950 hc         1 M5N       0.042867
     20 H7          -2.8770     2.7170    -0.9200 hc         1 M5N       0.048200
     21 H8          -2.6700     2.2420     0.7640 hc         1 M5N       0.048200
     22 H9          -4.3750     0.7870    -0.3430 hc         1 M5N       0.052700
     23 H10         -3.2220     0.3410    -1.6000 hc         1 M5N       0.052700
     24 H11         -0.8400     1.4780    -1.5900 hc         1 M5N       0.052700
     25 H12         -0.4730     2.6200    -0.3000 hc         1 M5N       0.052700
     26 H13         -3.0090    -0.3170     1.4000 hc         1 M5N       0.071700
     27 H14         -3.3090    -1.4600     0.1010 hc         1 M5N       0.071700
     28 H15         -0.4380     0.8080     1.3930 hc         1 M5N       0.096700
     29 H16          1.6220     2.0240    -0.9030 hc         1 M5N       0.060700
     30 OAC          1.0330    -3.2080     0.5510 o          1 M5N      -0.461100
@<TRIPOS>BOND
     1     1    10 1   
     2     1    14 1   
     3     1    15 1   
     4     1    16 1   
     5     2    10 1   
     6     2    17 1   
     7     2    18 1   
     8     2    19 1   
     9     3     4 1   
    10     3     5 1   
    11     3    20 1   
    12     3    21 1   
    13     4     6 1   
    14     4    22 1   
    15     4    23 1   
    16     5     8 1   
    17     5    24 1   
    18     5    25 1   
    19     6    11 1   
    20     6    26 1   
    21     6    27 1   
    22     7    12 1   
    23     7    13 1   
    24     7    30 2   
    25     8     9 1   
    26     8    11 1   
    27     8    28 1   
    28     9    10 1   
    29     9    12 2   
    30    10    29 1   
    31    11    13 2   
@<TRIPOS>SUBSTRUCTURE
     1 M5N         1 TEMP              0 ****  ****    0 ROOT
