@<TRIPOS>MOLECULE
M5O
   35    37     1     0     0
SMALL
bcc


@<TRIPOS>ATOM
      1 OAB         -8.9960    12.0740    11.3110 oh         1 M5O      -0.489100
      2 CAT         -7.9700    11.2040    11.2450 ca         1 M5O       0.205100
      3 CAK         -7.5450    10.8140     9.9790 ca         1 M5O      -0.235000
      4 CAY         -6.4840     9.9270     9.8620 ca         1 M5O       0.215100
      5 OAG         -6.1190     9.5930     8.6090 oh         1 M5O      -0.495100
      6 CBD         -5.8320     9.4030    10.9850 ca         1 M5O      -0.292300
      7 CAP         -4.7080     8.4090    10.8550 c6         1 M5O      -0.018100
      8 CAN         -7.3370    10.7180    12.3810 ca         1 M5O      -0.294000
      9 CBC         -6.2740     9.8320    12.2350 ca         1 M5O       0.216100
     10 OAR         -5.7000     9.4040    13.3820 os         1 M5O      -0.311900
     11 CBF         -4.4070     8.8220    13.2790 c6         1 M5O       0.165400
     12 CBE         -4.4170     7.7460    12.1890 c6         1 M5O       0.127100
     13 OAQ         -3.1770     7.0980    12.0940 oh         1 M5O      -0.590800
     14 CBA         -4.0290     8.2810    14.6260 ca         1 M5O      -0.095300
     15 CAO         -4.8740     7.3960    15.2980 ca         1 M5O      -0.119000
     16 CAV         -4.5150     6.8660    16.5240 ca         1 M5O       0.117100
     17 OAD         -5.3610     6.0160    17.1410 oh         1 M5O      -0.493100
     18 CAU         -3.2830     7.2190    17.0970 ca         1 M5O       0.055100
     19 OAC         -3.0060     6.6610    18.2960 oh         1 M5O      -0.516100
     20 CAI         -2.4430     8.0940    16.4300 ca         1 M5O      -0.183000
     21 CAJ         -2.8150     8.6230    15.1990 ca         1 M5O      -0.108000
     22 H1          -9.2020    12.2820    12.2290 ho         1 M5O       0.430000
     23 H2          -8.0300    11.2020     9.0920 ha         1 M5O       0.165000
     24 H3          -5.3500     9.0130     8.6050 ho         1 M5O       0.432000
     25 H4          -4.9520     7.6300    10.1250 hc         1 M5O       0.058200
     26 H5          -3.7930     8.9010    10.5050 hc         1 M5O       0.058200
     27 H6          -7.6480    11.0260    13.3730 ha         1 M5O       0.150000
     28 H7          -3.6820     9.5960    12.9890 h1         1 M5O       0.064700
     29 H8          -5.2250     7.0360    12.4200 h1         1 M5O       0.050700
     30 H9          -3.0500     6.5620    12.8830 ho         1 M5O       0.416000
     31 H10         -5.8280     7.1110    14.8700 ha         1 M5O       0.159000
     32 H11         -4.9980     5.7320    17.9880 ho         1 M5O       0.444000
     33 H12         -2.1490     6.9550    18.6260 ho         1 M5O       0.438000
     34 H13         -1.4930     8.3700    16.8730 ha         1 M5O       0.135000
     35 H14         -2.1490     9.3120    14.6950 ha         1 M5O       0.140000
@<TRIPOS>BOND
     1     1     2 1   
     2     1    22 1   
     3     2     3 ar  
     4     2     8 ar  
     5     3     4 ar  
     6     3    23 1   
     7     4     5 1   
     8     4     6 ar  
     9     5    24 1   
    10     6     7 1   
    11     6     9 ar  
    12     7    12 1   
    13     7    25 1   
    14     7    26 1   
    15     8     9 ar  
    16     8    27 1   
    17     9    10 1   
    18    10    11 1   
    19    11    12 1   
    20    11    14 1   
    21    11    28 1   
    22    12    13 1   
    23    12    29 1   
    24    13    30 1   
    25    14    15 ar  
    26    14    21 ar  
    27    15    16 ar  
    28    15    31 1   
    29    16    17 1   
    30    16    18 ar  
    31    17    32 1   
    32    18    19 1   
    33    18    20 ar  
    34    19    33 1   
    35    20    21 ar  
    36    20    34 1   
    37    21    35 1   
@<TRIPOS>SUBSTRUCTURE
     1 M5O         1 TEMP              0 ****  ****    0 ROOT
