@<TRIPOS>MOLECULE
M5O
   35    37     1     0     0
SMALL
No Charge or Current Charge


@<TRIPOS>ATOM
      1 OAB         -9.0300    12.1360    11.3490 oh         1 M5O      -0.528100
      2 CAT         -7.9990    11.2590    11.2170 ca         1 M5O       0.205100
      3 CAK         -7.6130    10.8280     9.9450 ca         1 M5O      -0.217000
      4 CAY         -6.5570     9.9220     9.7990 ca         1 M5O       0.215100
      5 OAG         -6.2060     9.5290     8.5450 oh         1 M5O      -0.534100
      6 CBD         -5.8720     9.4320    10.9300 ca         1 M5O      -0.292300
      7 CAP         -4.7250     8.4120    10.7950 c6         1 M5O      -0.018100
      8 CAN         -7.3230    10.7950    12.3490 ca         1 M5O      -0.276000
      9 CBC         -6.2580     9.8960    12.2090 ca         1 M5O       0.216100
     10 OAR         -5.6220     9.4720    13.3550 os         1 M5O      -0.335100
     11 CBF         -4.3460     8.8060    13.2550 c6         1 M5O       0.188600
     12 CBE         -4.3830     7.7270    12.1370 c6         1 M5O       0.150300
     13 OAQ         -3.1320     7.0250    12.0270 oh         1 M5O      -0.653000
     14 CBA         -3.9940     8.2340    14.6350 ca         1 M5O      -0.095300
     15 CAO         -4.8610     7.3220    15.2750 ca         1 M5O      -0.101000
     16 CAV         -4.5310     6.8010    16.5360 ca         1 M5O       0.117100
     17 OAD         -5.3680     5.9200    17.1570 oh         1 M5O      -0.532100
     18 CAU         -3.3320     7.1840    17.1720 ca         1 M5O       0.055100
     19 OAC         -3.0140     6.6730    18.4020 oh         1 M5O      -0.555100
     20 CAI         -2.4670     8.0920    16.5400 ca         1 M5O      -0.165000
     21 CAJ         -2.7970     8.6160    15.2760 ca         1 M5O      -0.090000
     22 H1          -9.1510    12.3210    12.3040 ho         1 M5O       0.469000
     23 H2          -8.1360    11.1960     9.0680 ha         1 M5O       0.147000
     24 H3          -5.4210     8.9500     8.6210 ho         1 M5O       0.471000
     25 H4          -4.9800     7.6320    10.0640 hc         1 M5O       0.058200
     26 H5          -3.8330     8.9270    10.4100 hc         1 M5O       0.058200
     27 H6          -7.6110    11.1280    13.3420 ha         1 M5O       0.132000
     28 H7          -3.5980     9.5630    12.9780 h1         1 M5O       0.064700
     29 H8          -5.1890     7.0180    12.3760 h1         1 M5O       0.050700
     30 H9          -2.9520     6.6270    12.9080 ho         1 M5O       0.455000
     31 H10         -5.7910     7.0230    14.7990 ha         1 M5O       0.141000
     32 H11         -4.9370     5.6970    18.0130 ho         1 M5O       0.483000
     33 H12         -2.1520     7.0490    18.6890 ho         1 M5O       0.477000
     34 H13         -1.5390     8.3970    17.0190 ha         1 M5O       0.117000
     35 H14         -2.1200     9.3190    14.7950 ha         1 M5O       0.122000
@<TRIPOS>BOND
     1     1     2 1   
     2     1    22 1   
     3     2     3 ar  
     4     2     8 ar  
     5     3     4 ar  
     6     3    23 1   
     7     4     5 1   
     8     4     6 ar  
     9     5    24 1   
    10     6     7 1   
    11     6     9 ar  
    12     7    12 1   
    13     7    25 1   
    14     7    26 1   
    15     8     9 ar  
    16     8    27 1   
    17     9    10 1   
    18    10    11 1   
    19    11    12 1   
    20    11    14 1   
    21    11    28 1   
    22    12    13 1   
    23    12    29 1   
    24    13    30 1   
    25    14    15 ar  
    26    14    21 ar  
    27    15    16 ar  
    28    15    31 1   
    29    16    17 1   
    30    16    18 ar  
    31    17    32 1   
    32    18    19 1   
    33    18    20 ar  
    34    19    33 1   
    35    20    21 ar  
    36    20    34 1   
    37    21    35 1   
@<TRIPOS>SUBSTRUCTURE
     1 M5O         1 TEMP              0 ****  ****    0 ROOT
