@<TRIPOS>MOLECULE
M5P
   30    30     1     0     0
SMALL
abcg2


@<TRIPOS>ATOM
      1 C1          34.8730     5.8530   107.3170 ca         1 M5P      -0.109000
      2 C2          36.0240     5.1050   107.0860 ca         1 M5P      -0.115000
      3 C3          37.1270     5.2450   107.9220 ca         1 M5P      -0.128000
      4 C4          37.0670     6.1350   108.9910 ca         1 M5P      -0.115000
      5 C5          35.9140     6.8780   109.2180 ca         1 M5P      -0.109000
      6 C6          34.8000     6.7500   108.3840 ca         1 M5P      -0.057300
      7 C7          33.5750     7.5980   108.5990 c3         1 M5P      -0.039100
      8 C8          33.7400     9.0130   108.0280 c3         1 M5P      -0.076400
      9 C9          32.4750     9.8510   108.1900 c3         1 M5P      -0.056400
     10 C10         32.5350    11.2720   107.6030 c3         1 M5P      -0.191700
     11 C12         31.1140    11.8780   107.7010 c          1 M5P       0.710000
     12 O2          30.3510    11.6810   106.7210 o          1 M5P      -0.730000
     13 O1          30.8160    12.4870   108.7620 o          1 M5P      -0.730000
     14 C11         33.5720    12.1680   108.2950 c3         1 M5P       0.150600
     15 S1          35.2560    12.1390   107.5600 sh         1 M5P      -0.582800
     16 H1          34.0170     5.7390   106.6610 ha         1 M5P       0.112500
     17 H2          36.0590     4.4120   106.2540 ha         1 M5P       0.101500
     18 H3          38.0240     4.6650   107.7450 ha         1 M5P       0.099000
     19 H4          37.9190     6.2480   109.6510 ha         1 M5P       0.101500
     20 H5          35.8740     7.5690   110.0530 ha         1 M5P       0.112500
     21 H71         32.7120     7.1190   108.1280 hc         1 M5P       0.042700
     22 H72         33.3580     7.6710   109.6680 hc         1 M5P       0.042700
     23 H81         34.5860     9.4940   108.5240 hc         1 M5P       0.042200
     24 H82         34.0040     8.9450   106.9680 hc         1 M5P       0.042200
     25 H91         31.6450     9.3220   107.7120 hc         1 M5P       0.041200
     26 H92         32.2270     9.9280   109.2540 hc         1 M5P       0.041200
     27 H10         32.7790    11.1990   106.5410 hc         1 M5P       0.044700
     28 H111        33.2420    13.2030   108.3010 h1         1 M5P       0.067700
     29 H112        33.7210    11.8730   109.3340 h1         1 M5P       0.067700
     30 HS1         34.9500    12.7820   106.4210 hs         1 M5P       0.220800
@<TRIPOS>BOND
     1     1     2 ar  
     2     1     6 ar  
     3     1    16 1   
     4     2     3 ar  
     5     2    17 1   
     6     3     4 ar  
     7     3    18 1   
     8     4     5 ar  
     9     4    19 1   
    10     5     6 ar  
    11     5    20 1   
    12     6     7 1   
    13     7     8 1   
    14     7    21 1   
    15     7    22 1   
    16     8     9 1   
    17     8    23 1   
    18     8    24 1   
    19     9    10 1   
    20     9    25 1   
    21     9    26 1   
    22    10    11 1   
    23    10    14 1   
    24    10    27 1   
    25    11    12 1   
    26    11    13 1   
    27    14    15 1   
    28    14    28 1   
    29    14    29 1   
    30    15    30 1   
@<TRIPOS>SUBSTRUCTURE
     1 M5P         1 TEMP              0 ****  ****    0 ROOT
