@<TRIPOS>MOLECULE
M5P
   30    30     1     0     0
SMALL
No Charge or Current Charge


@<TRIPOS>ATOM
      1 C1          34.9670     5.9810   107.2140 ca         1 M5P      -0.109000
      2 C2          36.1230     5.2150   106.9820 ca         1 M5P      -0.115000
      3 C3          37.1680     5.2180   107.9200 ca         1 M5P      -0.128000
      4 C4          37.0580     5.9870   109.0900 ca         1 M5P      -0.115000
      5 C5          35.9020     6.7530   109.3220 ca         1 M5P      -0.109000
      6 C6          34.8490     6.7530   108.3860 ca         1 M5P      -0.057300
      7 C7          33.5990     7.5860   108.6360 c3         1 M5P      -0.039100
      8 C8          33.7290     9.0160   108.0680 c3         1 M5P      -0.076400
      9 C9          32.4750     9.8840   108.3200 c3         1 M5P      -0.056400
     10 C10         32.4710    11.2830   107.6310 c3         1 M5P      -0.191700
     11 C12         31.0790    11.9320   107.7550 c          1 M5P       0.710000
     12 O2          30.4520    12.1500   106.7290 o          1 M5P      -0.730000
     13 O1          30.6650    12.2170   108.8690 o          1 M5P      -0.730000
     14 C11         33.5320    12.2730   108.1690 c3         1 M5P       0.150600
     15 S1          35.2400    12.0470   107.4680 sh         1 M5P      -0.582800
     16 H1          34.1630     5.9760   106.4810 ha         1 M5P       0.112500
     17 H2          36.2080     4.6210   106.0750 ha         1 M5P       0.101500
     18 H3          38.0620     4.6250   107.7410 ha         1 M5P       0.099000
     19 H4          37.8670     5.9910   109.8170 ha         1 M5P       0.101500
     20 H5          35.8240     7.3490   110.2290 ha         1 M5P       0.112500
     21 H71         32.7260     7.0970   108.1850 hc         1 M5P       0.042700
     22 H72         33.3940     7.6430   109.7120 hc         1 M5P       0.042700
     23 H81         34.6020     9.4900   108.5300 hc         1 M5P       0.042200
     24 H82         33.9230     8.9580   106.9900 hc         1 M5P       0.042200
     25 H91         31.5980     9.3290   107.9620 hc         1 M5P       0.041200
     26 H92         32.3390    10.0100   109.4020 hc         1 M5P       0.041200
     27 H10         32.6610    11.1310   106.5610 hc         1 M5P       0.044700
     28 H111        33.2210    13.2960   107.9150 h1         1 M5P       0.067700
     29 H112        33.5800    12.2090   109.2640 h1         1 M5P       0.067700
     30 HS1         34.8810    12.2040   106.1690 hs         1 M5P       0.220800
@<TRIPOS>BOND
     1     1     2 ar  
     2     1     6 ar  
     3     1    16 1   
     4     2     3 ar  
     5     2    17 1   
     6     3     4 ar  
     7     3    18 1   
     8     4     5 ar  
     9     4    19 1   
    10     5     6 ar  
    11     5    20 1   
    12     6     7 1   
    13     7     8 1   
    14     7    21 1   
    15     7    22 1   
    16     8     9 1   
    17     8    23 1   
    18     8    24 1   
    19     9    10 1   
    20     9    25 1   
    21     9    26 1   
    22    10    11 1   
    23    10    14 1   
    24    10    27 1   
    25    11    12 1   
    26    11    13 1   
    27    14    15 1   
    28    14    28 1   
    29    14    29 1   
    30    15    30 1   
@<TRIPOS>SUBSTRUCTURE
     1 M5P         1 TEMP              0 ****  ****    0 ROOT
