@<TRIPOS>MOLECULE
M5R
   50    52     1     0     0
SMALL
bcc


@<TRIPOS>ATOM
      1 N1         -21.2090   -16.5470   -10.6620 nh         1 M5R      -0.645900
      2 C4         -23.2650   -22.4410   -15.5340 c3         1 M5R       0.170800
      3 C5         -23.8920   -20.0890   -15.0650 c6         1 M5R       0.175500
      4 C6         -24.4640   -18.8630   -15.7600 c6         1 M5R      -0.072400
      5 C7         -24.9710   -17.8610   -14.7370 c6         1 M5R      -0.040100
      6 C8         -23.9620   -17.5500   -13.6660 ca         1 M5R       0.012700
      7 C10        -23.2190   -16.0550   -11.9180 ca         1 M5R       0.212100
      8 C13        -19.1120   -16.1160    -9.6420 c          1 M5R       0.722500
      9 C15        -22.8960   -18.4250   -13.4240 ca         1 M5R      -0.144300
     10 C14        -22.0160   -18.0650   -12.4200 ca         1 M5R       0.187900
     11 C11        -22.1420   -16.9100   -11.6580 ca         1 M5R      -0.074400
     12 S          -21.4060   -17.2060    -9.1520 s6         1 M5R       1.448500
     13 O2         -21.4150   -18.6520    -9.1510 o          1 M5R      -0.593300
     14 O3         -22.4850   -16.5410    -8.4580 o          1 M5R      -0.593300
     15 N2         -19.9220   -16.6220    -8.6610 ns         1 M5R      -0.669300
     16 O1         -17.9940   -15.7060    -9.4710 o          1 M5R      -0.553500
     17 C12        -19.8360   -16.1690   -10.9650 c5         1 M5R       0.128800
     18 C9         -24.1180   -16.3880   -12.9200 ca         1 M5R      -0.194000
     19 C16        -22.6720   -19.6830   -14.2280 c6         1 M5R      -0.054100
     20 N          -23.6190   -21.1250   -16.0440 n7         1 M5R      -0.818200
     21 C3         -24.4430   -23.1390   -14.8650 c3         1 M5R      -0.077400
     22 C1         -24.1650   -24.5900   -14.4650 c3         1 M5R      -0.061700
     23 C2         -25.2900   -25.1160   -13.5780 c3         1 M5R      -0.087100
     24 C          -23.9830   -25.4970   -15.6800 c3         1 M5R      -0.087100
     25 H1         -22.9370   -23.0260   -16.3960 h1         1 M5R       0.030200
     26 H2         -22.4150   -22.4310   -14.8340 h1         1 M5R       0.030200
     27 H3         -24.6630   -20.4710   -14.3870 h1         1 M5R       0.065700
     28 H4         -23.6930   -18.4030   -16.3890 hc         1 M5R       0.053700
     29 H5         -25.2810   -19.1600   -16.4190 hc         1 M5R       0.053700
     30 H6         -25.2810   -16.9340   -15.2240 hc         1 M5R       0.060200
     31 H7         -25.8710   -18.2610   -14.2560 hc         1 M5R       0.060200
     32 H8         -19.6200   -16.7340    -7.6980 hn         1 M5R       0.360500
     33 H9         -19.3310   -16.8860   -11.6170 h1         1 M5R       0.094700
     34 H10        -19.8150   -15.1890   -11.4430 h1         1 M5R       0.094700
     35 H11        -22.6870   -14.7980   -10.5920 ho         1 M5R       0.449000
     36 H12        -24.9450   -15.7210   -13.1290 ha         1 M5R       0.158000
     37 H13        -22.3880   -20.5040   -13.5660 hc         1 M5R       0.056200
     38 H14        -21.8260   -19.5310   -14.9080 hc         1 M5R       0.056200
     39 H15        -22.8850   -20.8020   -16.6640 hn         1 M5R       0.356800
     40 H17        -24.7300   -22.5840   -13.9660 hc         1 M5R       0.046200
     41 H18        -25.3080   -23.1070   -15.5370 hc         1 M5R       0.046200
     42 H19        -23.2380   -24.6110   -13.8800 hc         1 M5R       0.043700
     43 H20        -25.4160   -24.5000   -12.6860 hc         1 M5R       0.032533
     44 H21        -26.2410   -25.1160   -14.1170 hc         1 M5R       0.032533
     45 H22        -25.0950   -26.1390   -13.2530 hc         1 M5R       0.032533
     46 H23        -23.8080   -26.5300   -15.3740 hc         1 M5R       0.032533
     47 H24        -24.8800   -25.4830   -16.3050 hc         1 M5R       0.032533
     48 H25        -23.1410   -25.1950   -16.3020 hc         1 M5R       0.032533
     49 O          -23.3990   -14.9200   -11.2360 oh         1 M5R      -0.472100
     50 F          -20.9610   -18.8490   -12.1700 f          1 M5R      -0.131900
@<TRIPOS>BOND
     1     1    11 1   
     2     1    12 1   
     3     1    17 1   
     4     2    20 1   
     5     2    21 1   
     6     2    25 1   
     7     2    26 1   
     8     3     4 1   
     9     3    19 1   
    10     3    20 1   
    11     3    27 1   
    12     4     5 1   
    13     4    28 1   
    14     4    29 1   
    15     5     6 1   
    16     5    30 1   
    17     5    31 1   
    18     6     9 ar  
    19     6    18 ar  
    20     7    11 ar  
    21     7    18 ar  
    22     7    49 1   
    23     8    15 1   
    24     8    16 2   
    25     8    17 1   
    26     9    10 ar  
    27     9    19 1   
    28    10    11 ar  
    29    10    50 1   
    30    12    13 2   
    31    12    14 2   
    32    12    15 1   
    33    15    32 1   
    34    17    33 1   
    35    17    34 1   
    36    18    36 1   
    37    19    37 1   
    38    19    38 1   
    39    20    39 1   
    40    21    22 1   
    41    21    40 1   
    42    21    41 1   
    43    22    23 1   
    44    22    24 1   
    45    22    42 1   
    46    23    43 1   
    47    23    44 1   
    48    23    45 1   
    49    24    46 1   
    50    24    47 1   
    51    24    48 1   
    52    35    49 1   
@<TRIPOS>SUBSTRUCTURE
     1 M5R         1 TEMP              0 ****  ****    0 ROOT
