@<TRIPOS>MOLECULE
M5R
   50    52     1     0     0
SMALL
No Charge or Current Charge


@<TRIPOS>ATOM
      1 N1         -21.2870   -16.5150   -10.6480 nh         1 M5R      -0.784300
      2 C4         -23.3090   -22.4050   -15.6660 c3         1 M5R       0.170800
      3 C5         -24.0610   -20.0100   -15.1650 c6         1 M5R       0.175500
      4 C6         -24.6080   -18.7660   -15.8930 c6         1 M5R      -0.072400
      5 C7         -25.0720   -17.7020   -14.8750 c6         1 M5R      -0.040100
      6 C8         -24.0450   -17.4260   -13.7720 ca         1 M5R       0.012700
      7 C10        -23.2530   -15.9710   -11.9890 ca         1 M5R       0.212100
      8 C13        -19.0440   -16.6730    -9.6130 c          1 M5R       0.580000
      9 C15        -22.9900   -18.3300   -13.4990 ca         1 M5R      -0.144300
     10 C14        -22.0670   -18.0290   -12.4720 ca         1 M5R       0.223000
     11 C11        -22.1910   -16.8480   -11.7000 ca         1 M5R       0.064000
     12 S          -21.5360   -17.1670    -9.0790 s6         1 M5R       1.306900
     13 O2         -21.9820   -18.5560    -9.1900 o          1 M5R      -0.522500
     14 O3         -22.2520   -16.1730    -8.2780 o          1 M5R      -0.522500
     15 N2         -19.9410   -17.1250    -8.7090 ns         1 M5R      -0.602300
     16 O1         -17.8420   -16.6390    -9.4010 o          1 M5R      -0.478000
     17 C12        -19.8240   -16.2390   -10.9020 c5         1 M5R       0.128800
     18 C9         -24.1690   -16.2530   -13.0080 ca         1 M5R      -0.176000
     19 C16        -22.8180   -19.6200   -14.3220 c6         1 M5R      -0.054100
     20 N          -23.7580   -21.0780   -16.1500 n7         1 M5R      -0.873400
     21 C3         -24.4010   -23.1260   -14.8360 c3         1 M5R      -0.077400
     22 C1         -23.9950   -24.5360   -14.3240 c3         1 M5R      -0.061700
     23 C2         -25.0620   -25.1010   -13.3580 c3         1 M5R      -0.087100
     24 C          -23.7120   -25.5370   -15.4700 c3         1 M5R      -0.087100
     25 H1         -23.0620   -23.0280   -16.5360 h1         1 M5R       0.030200
     26 H2         -22.3950   -22.3140   -15.0660 h1         1 M5R       0.030200
     27 H3         -24.8490   -20.3600   -14.4800 h1         1 M5R       0.065700
     28 H4         -23.8320   -18.3410   -16.5450 hc         1 M5R       0.053700
     29 H5         -25.4500   -19.0430   -16.5420 hc         1 M5R       0.053700
     30 H6         -25.3100   -16.7710   -15.4080 hc         1 M5R       0.060200
     31 H7         -26.0100   -18.0330   -14.4070 hc         1 M5R       0.060200
     32 H8         -19.6830   -17.4950    -7.8130 hn         1 M5R       0.360500
     33 H9         -19.4290   -16.8200   -11.7450 h1         1 M5R       0.094700
     34 H10        -19.6300   -15.1740   -11.0810 h1         1 M5R       0.094700
     35 H11        -22.5950   -14.8530   -10.6520 ho         1 M5R       0.488000
     36 H12        -24.9780   -15.5540   -13.2070 ha         1 M5R       0.140000
     37 H13        -22.5720   -20.4520   -13.6470 hc         1 M5R       0.056200
     38 H14        -21.9500   -19.4960   -14.9840 hc         1 M5R       0.056200
     39 H15        -23.0420   -20.7220   -16.7940 hn         1 M5R       0.412000
     40 H17        -24.6490   -22.5090   -13.9650 hc         1 M5R       0.046200
     41 H18        -25.3150   -23.2070   -15.4370 hc         1 M5R       0.046200
     42 H19        -23.0670   -24.4250   -13.7480 hc         1 M5R       0.043700
     43 H20        -25.2190   -24.4210   -12.5110 hc         1 M5R       0.032533
     44 H21        -26.0220   -25.2370   -13.8710 hc         1 M5R       0.032533
     45 H22        -24.7470   -26.0710   -12.9550 hc         1 M5R       0.032533
     46 H23        -23.4750   -26.5290   -15.0660 hc         1 M5R       0.032533
     47 H24        -24.5850   -25.6360   -16.1270 hc         1 M5R       0.032533
     48 H25        -22.8570   -25.2180   -16.0760 hc         1 M5R       0.032533
     49 O          -23.3650   -14.8240   -11.2640 oh         1 M5R      -0.511100
     50 F          -21.0440   -18.8850   -12.2280 f          1 M5R      -0.167000
@<TRIPOS>BOND
     1     1    11 1   
     2     1    12 1   
     3     1    17 1   
     4     2    20 1   
     5     2    21 1   
     6     2    25 1   
     7     2    26 1   
     8     3     4 1   
     9     3    19 1   
    10     3    20 1   
    11     3    27 1   
    12     4     5 1   
    13     4    28 1   
    14     4    29 1   
    15     5     6 1   
    16     5    30 1   
    17     5    31 1   
    18     6     9 ar  
    19     6    18 ar  
    20     7    11 ar  
    21     7    18 ar  
    22     7    49 1   
    23     8    15 1   
    24     8    16 2   
    25     8    17 1   
    26     9    10 ar  
    27     9    19 1   
    28    10    11 ar  
    29    10    50 1   
    30    12    13 2   
    31    12    14 2   
    32    12    15 1   
    33    15    32 1   
    34    17    33 1   
    35    17    34 1   
    36    18    36 1   
    37    19    37 1   
    38    19    38 1   
    39    20    39 1   
    40    21    22 1   
    41    21    40 1   
    42    21    41 1   
    43    22    23 1   
    44    22    24 1   
    45    22    42 1   
    46    23    43 1   
    47    23    44 1   
    48    23    45 1   
    49    24    46 1   
    50    24    47 1   
    51    24    48 1   
    52    35    49 1   
@<TRIPOS>SUBSTRUCTURE
     1 M5R         1 TEMP              0 ****  ****    0 ROOT
