@<TRIPOS>MOLECULE
M5S
  108   112     1     0     0
SMALL
No Charge or Current Charge


@<TRIPOS>ATOM
      1 O25          8.2150     2.8750    -0.9860 oh         1 M5S      -0.691000
      2 C25          7.1630     1.9690    -1.4150 c6         1 M5S       0.124300
      3 C35          7.7590     0.5310    -1.5210 c6         1 M5S       0.142300
      4 O35          8.9430     0.5540    -2.3380 oh         1 M5S      -0.652000
      5 C45          8.0910    -0.0380    -0.1050 c6         1 M5S       0.150300
      6 O45          8.5990    -1.3830    -0.2250 oh         1 M5S      -0.723000
      7 C55          6.8070     0.0300     0.7710 c6         1 M5S       0.167300
      8 C65          6.9970    -0.4790     2.2300 c3         1 M5S       0.169600
      9 O65          5.7810    -0.3780     3.0050 oh         1 M5S      -0.721000
     10 O05          6.3260     1.4010     0.8420 os         1 M5S      -0.458000
     11 C15          5.9370     1.9580    -0.4280 c6         1 M5S       0.354300
     12 O15          4.8360     1.1850    -0.9510 os         1 M5S      -0.466000
     13 C34          3.5190     1.5170    -0.4230 c6         1 M5S       0.184300
     14 C44          2.4320     0.7970    -1.2780 c6         1 M5S       0.132300
     15 O44          2.5960     1.1270    -2.6740 oh         1 M5S      -0.720000
     16 C24          3.3220     1.1820     1.0990 c6         1 M5S       0.134300
     17 O24          3.6280    -0.2120     1.4010 oh         1 M5S      -0.729000
     18 C14          1.8460     1.5590     1.4730 c6         1 M5S       0.358300
     19 O14          1.5680     1.1900     2.8110 oh         1 M5S      -0.647000
     20 O04          0.9190     0.8320     0.6600 os         1 M5S      -0.469000
     21 C54          1.0050     1.1540    -0.7530 c6         1 M5S       0.152300
     22 C64         -0.1060     0.3490    -1.4910 c3         1 M5S       0.164600
     23 O12         -1.4170     0.8420    -1.1270 os         1 M5S      -0.472000
     24 C12         -2.5150    -0.0400    -1.4360 c6         1 M5S       0.351300
     25 O02         -2.3760    -1.2300    -0.6290 os         1 M5S      -0.456000
     26 C22         -3.9120     0.6330    -1.1840 c6         1 M5S       0.133300
     27 O22         -4.9950    -0.1790    -1.7110 oh         1 M5S      -0.697000
     28 C32         -4.0860     0.8880     0.3580 c6         1 M5S       0.190300
     29 O13         -5.3670     1.4730     0.7380 os         1 M5S      -0.469000
     30 C13         -5.5990     2.8220     0.2810 c6         1 M5S       0.354300
     31 O03         -6.0660     2.7700    -1.0810 os         1 M5S      -0.457000
     32 C53         -7.3310     2.0730    -1.2530 c6         1 M5S       0.170300
     33 C63         -7.5950     1.9420    -2.7830 c3         1 M5S       0.168600
     34 C43         -8.4560     2.8100    -0.4710 c6         1 M5S       0.149300
     35 O43         -9.7300     2.1430    -0.5890 oh         1 M5S      -0.726000
     36 C33         -8.0440     2.8990     1.0330 c6         1 M5S       0.141300
     37 O33         -9.0270     3.6420     1.7750 oh         1 M5S      -0.654000
     38 C23         -6.6460     3.5740     1.1850 c6         1 M5S       0.124300
     39 O23         -6.7710     4.9800     0.8430 oh         1 M5S      -0.693000
     40 C42         -3.8760    -0.4420     1.1490 c6         1 M5S       0.137300
     41 O42         -4.0450    -0.2150     2.5650 oh         1 M5S      -0.723000
     42 C52         -2.4650    -0.9910     0.8040 c6         1 M5S       0.131300
     43 C62         -2.0600    -2.3060     1.5240 c3         1 M5S       0.175600
     44 O11         -0.6250    -2.3750     1.4520 os         1 M5S      -0.486000
     45 C11          0.0330    -3.5850     1.8530 c6         1 M5S       0.357300
     46 O01         -0.3080    -4.6470     0.9300 os         1 M5S      -0.457000
     47 C51          0.0660    -4.3930    -0.4570 c6         1 M5S       0.173300
     48 C61         -0.3910    -5.6130    -1.3240 c3         1 M5S       0.168600
     49 O61         -1.7970    -5.9180    -1.2010 oh         1 M5S      -0.710000
     50 C41          1.6030    -4.1300    -0.5770 c6         1 M5S       0.136300
     51 O41          1.9930    -3.7840    -1.9210 oh         1 M5S      -0.737000
     52 C31          2.0080    -2.9820     0.3950 c6         1 M5S       0.145300
     53 O31          3.4140    -2.6770     0.2810 oh         1 M5S      -0.672000
     54 C21          1.5860    -3.3490     1.8590 c6         1 M5S       0.131300
     55 O21          2.3150    -4.5120     2.3410 oh         1 M5S      -0.691000
     56 O63         -6.5180     1.2600    -3.4640 oh         1 M5S      -0.720000
     57 HO25         7.8410     3.7870    -0.9800 ho         1 M5S       0.503000
     58 H25          6.7970     2.2670    -2.4080 h1         1 M5S       0.049700
     59 H35          6.9990    -0.1190    -1.9830 h1         1 M5S       0.065700
     60 HO35         9.3320     1.4450    -2.1730 ho         1 M5S       0.448000
     61 H45          8.8520     0.6070     0.3620 h1         1 M5S       0.067700
     62 HO45         9.1740    -1.3680    -1.0280 ho         1 M5S       0.523000
     63 H55          6.0370    -0.6010     0.3050 h1         1 M5S       0.077700
     64 H65          7.3330    -1.5240     2.1950 h1         1 M5S       0.036700
     65 H65A         7.7970     0.1100     2.6990 h1         1 M5S       0.036700
     66 HO65         6.0280    -0.5710     3.9410 ho         1 M5S       0.503000
     67 H15          5.6080     2.9990    -0.2830 h2         1 M5S       0.069700
     68 H34          3.3720     2.6000    -0.5480 h1         1 M5S       0.056700
     69 H44          2.5720    -0.2860    -1.1440 h1         1 M5S       0.069700
     70 HO44         3.5660     1.0690    -2.8450 ho         1 M5S       0.514000
     71 H24          3.9750     1.8460     1.6830 h1         1 M5S       0.083700
     72 HO24         4.4480    -0.1880     1.9840 ho         1 M5S       0.531000
     73 H54          0.8150     2.2280    -0.8940 h1         1 M5S       0.056700
     74 H64          0.0380     0.4380    -2.5750 h1         1 M5S       0.050700
     75 H64A         0.0120    -0.7100    -1.2250 h1         1 M5S       0.050700
     76 H12         -2.4560    -0.3180    -2.4990 h2         1 M5S       0.068700
     77 H22         -3.8900     1.6050    -1.6990 h1         1 M5S       0.080700
     78 HO22        -5.5410     0.4180    -2.2980 ho         1 M5S       0.504000
     79 H32         -3.2940     1.5850     0.6730 h1         1 M5S       0.072700
     80 H13         -4.6530     3.3830     0.3190 h2         1 M5S       0.072700
     81 H53         -7.2400     1.0540    -0.8520 h1         1 M5S       0.068700
     82 H63         -8.5360     1.3960    -2.9290 h1         1 M5S       0.037200
     83 H63A        -7.7300     2.9500    -3.1960 h1         1 M5S       0.037200
     84 H43         -8.5330     3.8320    -0.8730 h1         1 M5S       0.068700
     85 HO43       -10.2640     2.4730     0.1740 ho         1 M5S       0.522000
     86 H33         -7.9730     1.8740     1.4300 h1         1 M5S       0.064700
     87 HO33        -8.7090     4.5740     1.7280 ho         1 M5S       0.448000
     88 H23         -6.3240     3.4730     2.2320 h1         1 M5S       0.049700
     89 HO23        -5.8980     5.4070     1.0050 ho         1 M5S       0.503000
     90 H42         -4.6210    -1.1720     0.8000 h1         1 M5S       0.070700
     91 HO42        -4.8430     0.3590     2.6430 ho         1 M5S       0.507000
     92 H52         -1.7220    -0.2330     1.0920 h1         1 M5S       0.081700
     93 H62         -2.3890    -2.2800     2.5710 h1         1 M5S       0.045700
     94 H62A        -2.5380    -3.1600     1.0240 h1         1 M5S       0.045700
     95 H11         -0.2960    -3.8590     2.8670 h2         1 M5S       0.062700
     96 H51         -0.4780    -3.5070    -0.8160 h1         1 M5S       0.076700
     97 H61         -0.1500    -5.3980    -2.3740 h1         1 M5S       0.031700
     98 H61A         0.2080    -6.4840    -1.0270 h1         1 M5S       0.031700
     99 HO61        -1.9610    -6.7340    -1.7280 ho         1 M5S       0.498000
    100 H41          2.1290    -5.0460    -0.2650 h1         1 M5S       0.065700
    101 HO41         2.8840    -3.3700    -1.8170 ho         1 M5S       0.517000
    102 H31          1.4360    -2.0890     0.1020 h1         1 M5S       0.070700
    103 HO31         3.5270    -1.7810     0.7040 ho         1 M5S       0.478000
    104 H21          1.7960    -2.4840     2.5040 h1         1 M5S       0.051700
    105 HO21         2.1550    -4.5790     3.3100 ho         1 M5S       0.499000
    106 HO63        -6.7060     1.3320    -4.4310 ho         1 M5S       0.502000
    107 H511         1.6870     2.6400     1.3430 h2         1 M5S       0.025700
    108 H521         1.7690     0.2310     2.8180 ho         1 M5S       0.470000
@<TRIPOS>BOND
     1     1     2 1   
     2     1    57 1   
     3     2     3 1   
     4     2    11 1   
     5     2    58 1   
     6     3     4 1   
     7     3     5 1   
     8     3    59 1   
     9     4    60 1   
    10     5     6 1   
    11     5     7 1   
    12     5    61 1   
    13     6    62 1   
    14     7     8 1   
    15     7    10 1   
    16     7    63 1   
    17     8     9 1   
    18     8    64 1   
    19     8    65 1   
    20     9    66 1   
    21    10    11 1   
    22    11    12 1   
    23    11    67 1   
    24    12    13 1   
    25    13    14 1   
    26    13    16 1   
    27    13    68 1   
    28    14    15 1   
    29    14    21 1   
    30    14    69 1   
    31    15    70 1   
    32    16    17 1   
    33    16    18 1   
    34    16    71 1   
    35    17    72 1   
    36    18    19 1   
    37    18    20 1   
    38    18   107 1   
    39    19   108 1   
    40    20    21 1   
    41    21    22 1   
    42    21    73 1   
    43    22    23 1   
    44    22    74 1   
    45    22    75 1   
    46    23    24 1   
    47    24    25 1   
    48    24    26 1   
    49    24    76 1   
    50    25    42 1   
    51    26    27 1   
    52    26    28 1   
    53    26    77 1   
    54    27    78 1   
    55    28    29 1   
    56    28    40 1   
    57    28    79 1   
    58    29    30 1   
    59    30    31 1   
    60    30    38 1   
    61    30    80 1   
    62    31    32 1   
    63    32    33 1   
    64    32    34 1   
    65    32    81 1   
    66    33    56 1   
    67    33    82 1   
    68    33    83 1   
    69    34    35 1   
    70    34    36 1   
    71    34    84 1   
    72    35    85 1   
    73    36    37 1   
    74    36    38 1   
    75    36    86 1   
    76    37    87 1   
    77    38    39 1   
    78    38    88 1   
    79    39    89 1   
    80    40    41 1   
    81    40    42 1   
    82    40    90 1   
    83    41    91 1   
    84    42    43 1   
    85    42    92 1   
    86    43    44 1   
    87    43    93 1   
    88    43    94 1   
    89    44    45 1   
    90    45    46 1   
    91    45    54 1   
    92    45    95 1   
    93    46    47 1   
    94    47    48 1   
    95    47    50 1   
    96    47    96 1   
    97    48    49 1   
    98    48    97 1   
    99    48    98 1   
   100    49    99 1   
   101    50    51 1   
   102    50    52 1   
   103    50   100 1   
   104    51   101 1   
   105    52    53 1   
   106    52    54 1   
   107    52   102 1   
   108    53   103 1   
   109    54    55 1   
   110    54   104 1   
   111    55   105 1   
   112    56   106 1   
@<TRIPOS>SUBSTRUCTURE
     1 M5S         1 TEMP              0 ****  ****    0 ROOT
