@<TRIPOS>MOLECULE
M5S
  108   112     1     0     0
SMALL
bcc


@<TRIPOS>ATOM
      1 O25          7.6700     1.8900    -2.3080 oh         1 M5S      -0.568800
      2 C25          6.6850     0.9590    -1.9370 c6         1 M5S       0.101100
      3 C35          7.3450    -0.1400    -1.1090 c6         1 M5S       0.119100
      4 O35          8.4370    -0.7340    -1.7710 oh         1 M5S      -0.589800
      5 C45          7.8530     0.4170     0.2170 c6         1 M5S       0.127100
      6 O45          8.3320    -0.6140     1.0480 oh         1 M5S      -0.600800
      7 C55          6.7000     1.1070     0.9480 c6         1 M5S       0.144100
      8 C65          7.1640     1.8000     2.2110 c3         1 M5S       0.146400
      9 O65          6.0440     2.3350     2.8760 oh         1 M5S      -0.598800
     10 O05          6.1150     2.0990     0.1170 os         1 M5S      -0.411600
     11 C15          5.6000     1.6390    -1.0960 c6         1 M5S       0.307900
     12 O15          4.5630     0.7250    -0.9340 os         1 M5S      -0.419600
     13 C34          3.3090     1.2370    -0.5590 c6         1 M5S       0.161100
     14 C44          2.2500     0.5100    -1.3820 c6         1 M5S       0.109100
     15 O44          2.4350     0.8810    -2.7280 oh         1 M5S      -0.597800
     16 C24          3.0620     1.1260     0.9430 c6         1 M5S       0.111100
     17 O24          3.3310    -0.1920     1.3650 oh         1 M5S      -0.606800
     18 C14          1.6140     1.5200     1.2230 c6         1 M5S       0.311900
     19 O14          1.3710     1.3380     2.5680 oh         1 M5S      -0.584800
     20 O04          0.7310     0.7120     0.4910 os         1 M5S      -0.422600
     21 C54          0.8440     0.9050    -0.8980 c6         1 M5S       0.129100
     22 C64         -0.2150     0.0590    -1.5710 c3         1 M5S       0.141400
     23 O12         -1.4970     0.4940    -1.1670 os         1 M5S      -0.425600
     24 C12         -2.4980    -0.4660    -1.3120 c6         1 M5S       0.304900
     25 O02         -2.3280    -1.5490    -0.4490 os         1 M5S      -0.409600
     26 C22         -3.8540     0.2110    -1.0850 c6         1 M5S       0.110100
     27 O22         -4.8890    -0.6650    -1.4570 oh         1 M5S      -0.574800
     28 C32         -4.0350     0.5450     0.3930 c6         1 M5S       0.167100
     29 O13         -5.3410     1.0050     0.6530 os         1 M5S      -0.422600
     30 C13         -5.4810     2.3510     0.9640 c6         1 M5S       0.307900
     31 O03         -5.3700     3.1750    -0.1590 os         1 M5S      -0.410600
     32 C53         -6.3530     2.9730    -1.1610 c6         1 M5S       0.147100
     33 C63         -6.0430     3.9310    -2.2910 c3         1 M5S       0.145400
     34 C43         -7.7540     3.1950    -0.5900 c6         1 M5S       0.126100
     35 O43         -8.6820     2.8790    -1.6020 oh         1 M5S      -0.603800
     36 C33         -7.9490     2.2990     0.6280 c6         1 M5S       0.118100
     37 O33         -9.2300     2.5640     1.1500 oh         1 M5S      -0.591800
     38 C23         -6.8390     2.5290     1.6500 c6         1 M5S       0.101100
     39 O23         -6.9640     3.8340     2.1560 oh         1 M5S      -0.570800
     40 C42         -3.7680    -0.6680     1.2790 c6         1 M5S       0.114100
     41 O42         -3.8060    -0.2320     2.6180 oh         1 M5S      -0.600800
     42 C52         -2.3850    -1.2240     0.9310 c6         1 M5S       0.108100
     43 C62         -2.0130    -2.4770     1.6980 c3         1 M5S       0.152400
     44 O11         -0.6100    -2.5990     1.6130 os         1 M5S      -0.439600
     45 C11         -0.0430    -3.8600     1.7400 c6         1 M5S       0.310900
     46 O01         -0.3740    -4.7190     0.6900 os         1 M5S      -0.410600
     47 C51          0.0020    -4.2860    -0.6080 c6         1 M5S       0.150100
     48 C61         -0.3470    -5.4030    -1.5690 c3         1 M5S       0.145400
     49 O61         -1.7430    -5.5850    -1.5830 oh         1 M5S      -0.587800
     50 C41          1.4950    -3.9520    -0.6790 c6         1 M5S       0.113100
     51 O41          1.7260    -3.3270    -1.9230 oh         1 M5S      -0.614800
     52 C31          1.9000    -3.0300     0.4650 c6         1 M5S       0.122100
     53 O31          3.2880    -2.8070     0.3800 oh         1 M5S      -0.609800
     54 C21          1.4700    -3.6200     1.8030 c6         1 M5S       0.108100
     55 O21          2.1670    -4.8200     2.0210 oh         1 M5S      -0.568800
     56 O63         -4.7890     3.5950    -2.8390 oh         1 M5S      -0.597800
     57 HO25         7.2820     2.5130    -2.9300 ho         1 M5S       0.404000
     58 H25          6.2060     0.5130    -2.8200 h1         1 M5S       0.049700
     59 H35          6.5750    -0.8890    -0.8840 h1         1 M5S       0.065700
     60 HO35         8.0990    -1.3590    -2.4190 ho         1 M5S       0.409000
     61 H45          8.6410     1.1580     0.0200 h1         1 M5S       0.067700
     62 HO45         9.0220    -1.0830     0.5680 ho         1 M5S       0.424000
     63 H55          5.9550     0.3460     1.2140 h1         1 M5S       0.077700
     64 H65          7.6900     1.0680     2.8330 h1         1 M5S       0.036700
     65 H65A         7.8920     2.5790     1.9460 h1         1 M5S       0.036700
     66 HO65         6.3450     2.7220     3.7030 ho         1 M5S       0.404000
     67 H15          5.2390     2.5400    -1.6120 h2         1 M5S       0.069700
     68 H34          3.2410     2.3070    -0.8090 h1         1 M5S       0.056700
     69 H44          2.3790    -0.5730    -1.2540 h1         1 M5S       0.069700
     70 HO44         2.2250     0.1340    -3.2940 ho         1 M5S       0.415000
     71 H24          3.7190     1.8320     1.4640 h1         1 M5S       0.083700
     72 HO24         3.1510    -0.2580     2.3100 ho         1 M5S       0.432000
     73 H54          0.6820     1.9660    -1.1510 h1         1 M5S       0.056700
     74 H64         -0.1170     0.1490    -2.6600 h1         1 M5S       0.050700
     75 H64A        -0.0470    -0.9910    -1.3090 h1         1 M5S       0.050700
     76 H12         -2.4730    -0.9000    -2.3220 h2         1 M5S       0.068700
     77 H22         -3.8820     1.1350    -1.6770 h1         1 M5S       0.080700
     78 HO22        -4.9230    -0.7080    -2.4170 ho         1 M5S       0.405000
     79 H32         -3.2970     1.3170     0.6540 h1         1 M5S       0.072700
     80 H13         -4.6770     2.6790     1.6380 h2         1 M5S       0.072700
     81 H53         -6.3030     1.9450    -1.5450 h1         1 M5S       0.068700
     82 H63         -6.8420     3.8580    -3.0360 h1         1 M5S       0.037200
     83 H63A        -6.0570     4.9590    -1.9020 h1         1 M5S       0.037200
     84 H43         -7.8530     4.2480    -0.2840 h1         1 M5S       0.068700
     85 HO43        -9.5650     2.9370    -1.2200 ho         1 M5S       0.423000
     86 H33         -7.8760     1.2570     0.2880 h1         1 M5S       0.064700
     87 HO33        -9.4920     1.8290     1.7130 ho         1 M5S       0.409000
     88 H23         -6.9190     1.7810     2.4500 h1         1 M5S       0.049700
     89 HO23        -6.3680     3.9300     2.9050 ho         1 M5S       0.404000
     90 H42         -4.5310    -1.4340     1.0870 h1         1 M5S       0.070700
     91 HO42        -4.1690    -0.9320     3.1660 ho         1 M5S       0.408000
     92 H52         -1.6380    -0.4560     1.1740 h1         1 M5S       0.081700
     93 H62         -2.3160    -2.3860     2.7470 h1         1 M5S       0.045700
     94 H62A        -2.5310    -3.3440     1.2740 h1         1 M5S       0.045700
     95 H11         -0.3980    -4.3710     2.6470 h2         1 M5S       0.062700
     96 H51         -0.5660    -3.3890    -0.8860 h1         1 M5S       0.076700
     97 H61          0.0340    -5.1350    -2.5600 h1         1 M5S       0.031700
     98 H61A         0.1800    -6.3170    -1.2580 h1         1 M5S       0.031700
     99 HO61        -1.9420    -6.2830    -2.2130 ho         1 M5S       0.399000
    100 H41          2.0730    -4.8850    -0.6050 h1         1 M5S       0.065700
    101 HO41         2.6620    -3.1030    -1.9600 ho         1 M5S       0.418000
    102 H31          1.3540    -2.0870     0.3460 h1         1 M5S       0.070700
    103 HO31         3.4500    -1.8870     0.6460 ho         1 M5S       0.439000
    104 H21          1.6700    -2.8910     2.6010 h1         1 M5S       0.051700
    105 HO21         1.9790    -5.1270     2.9130 ho         1 M5S       0.400000
    106 HO63        -4.6210     4.1850    -3.5790 ho         1 M5S       0.403000
    107 H511         1.4770     2.5740     0.9200 h2         1 M5S       0.025700
    108 H521         0.5010     1.6860     2.7880 ho         1 M5S       0.431000
@<TRIPOS>BOND
     1     1     2 1   
     2     1    57 1   
     3     2     3 1   
     4     2    11 1   
     5     2    58 1   
     6     3     4 1   
     7     3     5 1   
     8     3    59 1   
     9     4    60 1   
    10     5     6 1   
    11     5     7 1   
    12     5    61 1   
    13     6    62 1   
    14     7     8 1   
    15     7    10 1   
    16     7    63 1   
    17     8     9 1   
    18     8    64 1   
    19     8    65 1   
    20     9    66 1   
    21    10    11 1   
    22    11    12 1   
    23    11    67 1   
    24    12    13 1   
    25    13    14 1   
    26    13    16 1   
    27    13    68 1   
    28    14    15 1   
    29    14    21 1   
    30    14    69 1   
    31    15    70 1   
    32    16    17 1   
    33    16    18 1   
    34    16    71 1   
    35    17    72 1   
    36    18    19 1   
    37    18    20 1   
    38    18   107 1   
    39    19   108 1   
    40    20    21 1   
    41    21    22 1   
    42    21    73 1   
    43    22    23 1   
    44    22    74 1   
    45    22    75 1   
    46    23    24 1   
    47    24    25 1   
    48    24    26 1   
    49    24    76 1   
    50    25    42 1   
    51    26    27 1   
    52    26    28 1   
    53    26    77 1   
    54    27    78 1   
    55    28    29 1   
    56    28    40 1   
    57    28    79 1   
    58    29    30 1   
    59    30    31 1   
    60    30    38 1   
    61    30    80 1   
    62    31    32 1   
    63    32    33 1   
    64    32    34 1   
    65    32    81 1   
    66    33    56 1   
    67    33    82 1   
    68    33    83 1   
    69    34    35 1   
    70    34    36 1   
    71    34    84 1   
    72    35    85 1   
    73    36    37 1   
    74    36    38 1   
    75    36    86 1   
    76    37    87 1   
    77    38    39 1   
    78    38    88 1   
    79    39    89 1   
    80    40    41 1   
    81    40    42 1   
    82    40    90 1   
    83    41    91 1   
    84    42    43 1   
    85    42    92 1   
    86    43    44 1   
    87    43    93 1   
    88    43    94 1   
    89    44    45 1   
    90    45    46 1   
    91    45    54 1   
    92    45    95 1   
    93    46    47 1   
    94    47    48 1   
    95    47    50 1   
    96    47    96 1   
    97    48    49 1   
    98    48    97 1   
    99    48    98 1   
   100    49    99 1   
   101    50    51 1   
   102    50    52 1   
   103    50   100 1   
   104    51   101 1   
   105    52    53 1   
   106    52    54 1   
   107    52   102 1   
   108    53   103 1   
   109    54    55 1   
   110    54   104 1   
   111    55   105 1   
   112    56   106 1   
@<TRIPOS>SUBSTRUCTURE
     1 M5S         1 TEMP              0 ****  ****    0 ROOT
