@<TRIPOS>MOLECULE
M5V
   45    49     1     0     0
SMALL
No Charge or Current Charge


@<TRIPOS>ATOM
      1 C2          -0.0440     0.8670     0.4120 c5         1 M5V       0.195800
      2 C3          -0.9350     2.1630     0.5530 c5         1 M5V       0.201500
      3 C4          -2.1830     1.5590     1.2400 c5         1 M5V      -0.105400
      4 C5          -2.4370     0.4910     0.1520 c5         1 M5V       0.213500
      5 C6          -2.5280     1.4140    -1.1250 c5         1 M5V       0.192800
      6 C8          -0.8950     3.2950    -1.7780 ca         1 M5V       0.340000
      7 C11          0.3030     4.9380    -3.7400 ca         1 M5V      -0.152000
      8 C12          0.9550     4.6980    -2.5220 ca         1 M5V       0.166000
      9 C15         -0.8580    -1.5680     0.1300 ca         1 M5V       0.450900
     10 C17          0.4620    -3.2830     0.9530 cp         1 M5V       0.270500
     11 C19         -1.2370    -3.8550    -0.4930 ca         1 M5V       0.187900
     12 C21         -2.6680    -2.1540    -1.4980 cg         1 M5V       0.343000
     13 N22         -3.5430    -1.8800    -2.2200 n1         1 M5V      -0.470000
     14 C23          1.6120    -3.7090     1.8200 cp         1 M5V      -0.216500
     15 C24          2.3730    -2.7590     2.5540 ca         1 M5V       0.382900
     16 C27          3.0810    -5.4010     2.7750 ca         1 M5V      -0.181000
     17 N1          -1.0900    -0.1720     0.1200 nh         1 M5V      -0.778300
     18 N7          -1.5080     2.4700    -0.8020 nh         1 M5V      -0.821400
     19 C9          -1.5460     3.5440    -3.0030 ca         1 M5V      -0.182000
     20 C10         -0.9520     4.3600    -3.9820 ca         1 M5V      -0.059000
     21 Cl1          2.5280     5.4220    -2.2160 cl         1 M5V      -0.211000
     22 C14          0.3620     3.8850    -1.5460 ca         1 M5V      -0.187000
     23 N16          0.1760    -1.9690     0.8940 nb         1 M5V      -0.283000
     24 N18         -0.2130    -4.2410     0.2880 nb         1 M5V      -0.225000
     25 C20         -1.6050    -2.5070    -0.6120 ca         1 M5V      -0.228000
     26 N25          3.4190    -3.0790     3.3520 nb         1 M5V      -0.677000
     27 C26          3.7610    -4.3820     3.4550 ca         1 M5V       0.355900
     28 C28          1.9970    -5.0700     1.9490 ca         1 M5V      -0.024000
     29 H1           0.6940     0.9650    -0.3950 h1         1 M5V       0.075700
     30 H2           0.4870     0.6620     1.3520 h1         1 M5V       0.075700
     31 H3          -0.4740     3.0070     1.0860 h1         1 M5V       0.101700
     32 H4          -1.9710     1.1300     2.2260 hc         1 M5V       0.079200
     33 H5          -3.0060     2.2750     1.3470 hc         1 M5V       0.079200
     34 H6          -3.3010    -0.1650     0.3310 h1         1 M5V       0.105700
     35 H7          -2.2860     0.8560    -2.0400 h1         1 M5V       0.066200
     36 H8          -3.5330     1.8450    -1.2320 h1         1 M5V       0.066200
     37 H9           0.7690     5.5700    -4.4920 ha         1 M5V       0.132000
     38 H10         -1.7600    -4.6420    -1.0370 h4         1 M5V       0.031100
     39 H11          2.1390    -1.6960     2.5070 h4         1 M5V       0.037100
     40 H12          3.3950    -6.4340     2.8910 ha         1 M5V       0.127000
     41 H13         -2.5210     3.1120    -3.2030 ha         1 M5V       0.117000
     42 H14         -1.4660     4.5450    -4.9240 ha         1 M5V       0.116000
     43 H15          0.8920     3.7160    -0.6170 ha         1 M5V       0.125000
     44 H16          4.6060    -4.6130     4.1020 h4         1 M5V       0.020100
     45 H17          1.4680    -5.8620     1.4210 ha         1 M5V       0.143000
@<TRIPOS>BOND
     1     1     2 1   
     2     1    17 1   
     3     1    29 1   
     4     1    30 1   
     5     2     3 1   
     6     2    18 1   
     7     2    31 1   
     8     3     4 1   
     9     3    32 1   
    10     3    33 1   
    11     4     5 1   
    12     4    17 1   
    13     4    34 1   
    14     5    18 1   
    15     5    35 1   
    16     5    36 1   
    17     6    18 1   
    18     6    19 ar  
    19     6    22 ar  
    20     7     8 ar  
    21     7    20 ar  
    22     7    37 1   
    23     8    21 1   
    24     8    22 ar  
    25     9    17 1   
    26     9    23 ar  
    27     9    25 ar  
    28    10    14 1   
    29    10    23 ar  
    30    10    24 ar  
    31    11    24 ar  
    32    11    25 ar  
    33    11    38 1   
    34    12    13 3   
    35    12    25 1   
    36    14    15 ar  
    37    14    28 ar  
    38    15    26 ar  
    39    15    39 1   
    40    16    27 ar  
    41    16    28 ar  
    42    16    40 1   
    43    19    20 ar  
    44    19    41 1   
    45    20    42 1   
    46    22    43 1   
    47    26    27 ar  
    48    27    44 1   
    49    28    45 1   
@<TRIPOS>SUBSTRUCTURE
     1 M5V         1 TEMP              0 ****  ****    0 ROOT
