@<TRIPOS>MOLECULE
M5V
   45    49     1     0     0
SMALL
bcc


@<TRIPOS>ATOM
      1 C2          -0.5930     0.9370     0.9720 c5         1 M5V       0.195800
      2 C3          -1.4130     2.2050     0.7170 c5         1 M5V       0.201500
      3 C4          -2.7980     1.7490     1.1550 c5         1 M5V      -0.105400
      4 C5          -2.8100     0.5960     0.1570 c5         1 M5V       0.213500
      5 C6          -2.5750     1.3350    -1.1590 c5         1 M5V       0.192800
      6 C8          -0.6870     2.8890    -1.5700 ca         1 M5V       0.201600
      7 C11          1.1940     4.0290    -3.3490 ca         1 M5V      -0.170000
      8 C12          1.3720     4.0750    -1.9760 ca         1 M5V       0.074400
      9 C15         -1.2180    -1.3530     0.3560 ca         1 M5V       0.779200
     10 C17          0.3630    -2.9600     0.8000 cp         1 M5V       0.796500
     11 C19         -1.4910    -3.6500    -0.2630 ca         1 M5V       0.516200
     12 C21         -3.2150    -2.1430    -0.9800 cg         1 M5V       0.253800
     13 N22         -4.1980    -2.0280    -1.5760 n1         1 M5V      -0.380800
     14 C23          1.6850    -3.2800     1.3700 cp         1 M5V      -0.281800
     15 C24          2.5020    -2.2760     1.8900 ca         1 M5V       0.448200
     16 C27          3.4080    -4.8300     1.9560 ca         1 M5V      -0.264300
     17 N1          -1.5540    -0.0760     0.5060 nh         1 M5V      -0.778300
     18 N7          -1.6180     2.3570    -0.7220 nh         1 M5V      -0.683000
     19 C9          -0.8790     2.8400    -2.9620 ca         1 M5V      -0.200000
     20 C10          0.0490     3.4000    -3.8210 ca         1 M5V      -0.077000
     21 CL1          2.7910     4.8460    -1.3340 cl         1 M5V      -0.119400
     22 C14          0.4690     3.5220    -1.0850 ca         1 M5V      -0.205000
     23 N16         -0.0270    -1.7050     0.8550 nb         1 M5V      -0.809000
     24 N18         -0.3330    -3.9730     0.2760 nb         1 M5V      -0.751000
     25 C20         -2.0030    -2.3570    -0.2810 ca         1 M5V      -0.358600
     26 N25          3.6980    -2.5020     2.4130 nb         1 M5V      -0.677000
     27 C26          4.1380    -3.7560     2.4440 ca         1 M5V       0.421200
     28 C28          2.1610    -4.5880     1.4090 ca         1 M5V      -0.042000
     29 H1           0.3320     0.8980     0.3960 h1         1 M5V       0.075700
     30 H2          -0.3490     0.8090     2.0280 h1         1 M5V       0.075700
     31 H3          -1.0260     3.1010     1.1950 h1         1 M5V       0.101700
     32 H4          -2.8420     1.4220     2.1930 hc         1 M5V       0.079200
     33 H5          -3.5780     2.4840     0.9640 hc         1 M5V       0.079200
     34 H6          -3.6760    -0.0540     0.1890 h1         1 M5V       0.105700
     35 H7          -2.1520     0.6810    -1.9260 h1         1 M5V       0.066200
     36 H8          -3.4990     1.7690    -1.5520 h1         1 M5V       0.066200
     37 H9           1.9170     4.4640    -4.0250 ha         1 M5V       0.150000
     38 H10         -2.0600    -4.4490    -0.7250 h4         1 M5V       0.031100
     39 H11          2.1650    -1.2460     1.8760 h4         1 M5V       0.037100
     40 H12          3.8110    -5.8310     2.0080 ha         1 M5V       0.145000
     41 H13         -1.7640     2.3760    -3.3750 ha         1 M5V       0.135000
     42 H14         -0.1260     3.3490    -4.8880 ha         1 M5V       0.134000
     43 H15          0.6690     3.5860    -0.0250 ha         1 M5V       0.143000
     44 H16          5.1180    -3.9150     2.8810 h4         1 M5V       0.020100
     45 H17          1.5620    -5.3990     1.0180 ha         1 M5V       0.161000
@<TRIPOS>BOND
     1     1     2 1   
     2     1    17 1   
     3     1    29 1   
     4     1    30 1   
     5     2     3 1   
     6     2    18 1   
     7     2    31 1   
     8     3     4 1   
     9     3    32 1   
    10     3    33 1   
    11     4     5 1   
    12     4    17 1   
    13     4    34 1   
    14     5    18 1   
    15     5    35 1   
    16     5    36 1   
    17     6    18 1   
    18     6    19 ar  
    19     6    22 ar  
    20     7     8 ar  
    21     7    20 ar  
    22     7    37 1   
    23     8    21 1   
    24     8    22 ar  
    25     9    17 1   
    26     9    23 ar  
    27     9    25 ar  
    28    10    14 1   
    29    10    23 ar  
    30    10    24 ar  
    31    11    24 ar  
    32    11    25 ar  
    33    11    38 1   
    34    12    13 3   
    35    12    25 1   
    36    14    15 ar  
    37    14    28 ar  
    38    15    26 ar  
    39    15    39 1   
    40    16    27 ar  
    41    16    28 ar  
    42    16    40 1   
    43    19    20 ar  
    44    19    41 1   
    45    20    42 1   
    46    22    43 1   
    47    26    27 ar  
    48    27    44 1   
    49    28    45 1   
@<TRIPOS>SUBSTRUCTURE
     1 M5V         1 TEMP              0 ****  ****    0 ROOT
