@<TRIPOS>MOLECULE
M5W
   41    42     1     0     0
SMALL
No Charge or Current Charge


@<TRIPOS>ATOM
      1 C1           5.6410     2.1730    -0.5420 c3         1 M5W       0.150900
      2 O2           4.2160     2.0090    -0.6640 os         1 M5W      -0.344100
      3 C3           3.5550     0.9110    -0.1510 ca         1 M5W       0.131100
      4 C4           4.2240    -0.1260     0.5300 ca         1 M5W      -0.190000
      5 C5           3.4890    -1.2020     1.0510 ca         1 M5W      -0.080000
      6 C6           2.0960    -1.2600     0.8750 ca         1 M5W      -0.109000
      7 C7           1.4110    -0.2600     0.1470 ca         1 M5W      -0.080500
      8 C8           2.1620     0.8450    -0.3210 ca         1 M5W      -0.115000
      9 C9          -0.0620    -0.2570     0.0050 cc         1 M5W       0.380500
     10 N10         -0.6980     0.9010     0.0540 nd         1 M5W      -0.522800
     11 N11         -2.0440     0.5560     0.1020 na         1 M5W       0.098800
     12 C12         -2.2040    -0.8480     0.0610 cd         1 M5W       0.262000
     13 N13         -3.4210    -1.4780    -0.0430 nv         1 M5W      -1.064000
     14 C14         -0.9470    -1.3640    -0.0000 cc         1 M5W      -0.340600
     15 C15         -0.5900    -2.7850    -0.1580 c          1 M5W       0.643700
     16 N16         -1.5400    -3.6750     0.1820 nt         1 M5W      -0.611000
     17 O17          0.4770    -3.1940    -0.5770 o          1 M5W      -0.589100
     18 C18         -3.1090     1.6220     0.1700 c3         1 M5W       0.122000
     19 C19         -3.9730     1.6070    -1.1210 c3         1 M5W      -0.099767
     20 C20         -4.0130     1.4100     1.4170 c3         1 M5W      -0.099767
     21 C21         -2.4900     3.0480     0.2940 c3         1 M5W      -0.099767
     22 H1           5.9570     3.1100    -1.0180 h1         1 M5W       0.038367
     23 H2           5.9400     2.2100     0.5130 h1         1 M5W       0.038367
     24 H3           6.1720     1.3470    -1.0320 h1         1 M5W       0.038367
     25 H4           5.2990    -0.1050     0.6830 ha         1 M5W       0.114000
     26 H5           3.9960    -1.9860     1.6080 ha         1 M5W       0.109000
     27 H6           1.5520    -2.0720     1.3480 ha         1 M5W       0.116000
     28 H7           1.6660     1.6570    -0.8450 ha         1 M5W       0.134000
     29 H8          -3.4730    -2.3320    -0.5940 hn         1 M5W       0.462000
     30 H9          -4.2630    -0.9080    -0.0690 hn         1 M5W       0.462000
     31 H10         -2.3970    -3.3390     0.5950 hn         1 M5W       0.301500
     32 H11         -1.3470    -4.6620     0.1050 hn         1 M5W       0.301500
     33 H12         -4.5270     0.6700    -1.2360 hc         1 M5W       0.049367
     34 H13         -4.7080     2.4210    -1.1090 hc         1 M5W       0.049367
     35 H14         -3.3420     1.7360    -2.0090 hc         1 M5W       0.049367
     36 H15         -3.4090     1.3870     2.3320 hc         1 M5W       0.049367
     37 H16         -4.7420     2.2240     1.5150 hc         1 M5W       0.049367
     38 H17         -4.5780     0.4740     1.3640 hc         1 M5W       0.049367
     39 H18         -1.8640     3.2870    -0.5750 hc         1 M5W       0.049367
     40 H19         -3.2730     3.8140     0.3560 hc         1 M5W       0.049367
     41 H20         -1.8710     3.1340     1.1960 hc         1 M5W       0.049367
@<TRIPOS>BOND
     1     1     2 1   
     2     1    22 1   
     3     1    23 1   
     4     1    24 1   
     5     2     3 1   
     6     3     4 ar  
     7     3     8 ar  
     8     4     5 ar  
     9     4    25 1   
    10     5     6 ar  
    11     5    26 1   
    12     6     7 ar  
    13     6    27 1   
    14     7     8 ar  
    15     7     9 1   
    16     8    28 1   
    17     9    10 2   
    18     9    14 1   
    19    10    11 1   
    20    11    12 1   
    21    11    18 1   
    22    12    13 1   
    23    12    14 2   
    24    13    29 1   
    25    13    30 1   
    26    14    15 1   
    27    15    16 1   
    28    15    17 2   
    29    16    31 1   
    30    16    32 1   
    31    18    19 1   
    32    18    20 1   
    33    18    21 1   
    34    19    33 1   
    35    19    34 1   
    36    19    35 1   
    37    20    36 1   
    38    20    37 1   
    39    20    38 1   
    40    21    39 1   
    41    21    40 1   
    42    21    41 1   
@<TRIPOS>SUBSTRUCTURE
     1 M5W         1 TEMP              0 ****  ****    0 ROOT
