@<TRIPOS>MOLECULE
M5W
   41    42     1     0     0
SMALL
bcc


@<TRIPOS>ATOM
      1 C1           5.4650     2.0740    -0.7330 c3         1 M5W       0.127700
      2 O2           4.0610     1.9380    -0.8170 os         1 M5W      -0.320900
      3 C3           3.4770     0.8960    -0.1930 ca         1 M5W       0.131100
      4 C4           4.1660    -0.0700     0.5350 ca         1 M5W      -0.208000
      5 C5           3.4520    -1.1010     1.1370 ca         1 M5W      -0.098000
      6 C6           2.0770    -1.1880     1.0220 ca         1 M5W      -0.127000
      7 C7           1.3840    -0.2210     0.2900 ca         1 M5W      -0.080500
      8 C8           2.0890     0.8160    -0.3080 ca         1 M5W      -0.133000
      9 C9          -0.0810    -0.2490     0.1840 cc         1 M5W       0.445800
     10 N10         -0.7540     0.8720     0.2700 nd         1 M5W      -0.522800
     11 N11         -2.0570     0.5500     0.1770 na         1 M5W       0.077400
     12 C12         -2.2280    -0.7810     0.0260 cd         1 M5W       0.174300
     13 N13         -3.4430    -1.3990    -0.0890 nv         1 M5W      -0.815200
     14 C14         -0.9550    -1.3530     0.0390 cc         1 M5W      -0.405900
     15 C15         -0.6100    -2.7550    -0.2240 c          1 M5W       0.710700
     16 N16         -1.5000    -3.6680     0.2430 nt         1 M5W      -0.678000
     17 O17          0.3840    -3.0790    -0.8580 o          1 M5W      -0.589100
     18 C18         -3.0800     1.6200     0.1970 c3         1 M5W       0.092700
     19 C19         -3.7100     1.7450    -1.1930 c3         1 M5W      -0.099767
     20 C20         -4.1260     1.3200     1.2730 c3         1 M5W      -0.099767
     21 C21         -2.4080     2.9450     0.5470 c3         1 M5W      -0.099767
     22 H1           5.7250     2.9650    -1.2980 h1         1 M5W       0.038367
     23 H2           5.8030     2.2000     0.2990 h1         1 M5W       0.038367
     24 H3           5.9860     1.2170    -1.1690 h1         1 M5W       0.038367
     25 H4           5.2410    -0.0370     0.6470 ha         1 M5W       0.132000
     26 H5           3.9900    -1.8460     1.7090 ha         1 M5W       0.127000
     27 H6           1.5450    -1.9880     1.5170 ha         1 M5W       0.134000
     28 H7           1.5620     1.5710    -0.8780 ha         1 M5W       0.152000
     29 H8          -3.3830    -2.3430    -0.4420 hn         1 M5W       0.406800
     30 H9          -4.1670    -0.8870    -0.5670 hn         1 M5W       0.406800
     31 H10         -2.0850    -3.4450     1.0320 hn         1 M5W       0.301500
     32 H11         -1.2730    -4.6450     0.1390 hn         1 M5W       0.301500
     33 H12         -4.2400     0.8480    -1.5140 hc         1 M5W       0.049367
     34 H13         -4.4340     2.5600    -1.1980 hc         1 M5W       0.049367
     35 H14         -2.9460     1.9640    -1.9390 hc         1 M5W       0.049367
     36 H15         -3.6560     1.2550     2.2550 hc         1 M5W       0.049367
     37 H16         -4.8520     2.1330     1.3020 hc         1 M5W       0.049367
     38 H17         -4.6810     0.3990     1.1050 hc         1 M5W       0.049367
     39 H18         -1.6620     3.2390    -0.1890 hc         1 M5W       0.049367
     40 H19         -3.1770     3.7170     0.5750 hc         1 M5W       0.049367
     41 H20         -1.9310     2.9110     1.5250 hc         1 M5W       0.049367
@<TRIPOS>BOND
     1     1     2 1   
     2     1    22 1   
     3     1    23 1   
     4     1    24 1   
     5     2     3 1   
     6     3     4 ar  
     7     3     8 ar  
     8     4     5 ar  
     9     4    25 1   
    10     5     6 ar  
    11     5    26 1   
    12     6     7 ar  
    13     6    27 1   
    14     7     8 ar  
    15     7     9 1   
    16     8    28 1   
    17     9    10 2   
    18     9    14 1   
    19    10    11 1   
    20    11    12 1   
    21    11    18 1   
    22    12    13 1   
    23    12    14 2   
    24    13    29 1   
    25    13    30 1   
    26    14    15 1   
    27    15    16 1   
    28    15    17 2   
    29    16    31 1   
    30    16    32 1   
    31    18    19 1   
    32    18    20 1   
    33    18    21 1   
    34    19    33 1   
    35    19    34 1   
    36    19    35 1   
    37    20    36 1   
    38    20    37 1   
    39    20    38 1   
    40    21    39 1   
    41    21    40 1   
    42    21    41 1   
@<TRIPOS>SUBSTRUCTURE
     1 M5W         1 TEMP              0 ****  ****    0 ROOT
