@<TRIPOS>MOLECULE
M5X
   23    24     1     0     0
SMALL
abcg2


@<TRIPOS>ATOM
      1 N1           7.8790    -4.5700    21.2980 ns         1 M5X      -0.146000
      2 C4           7.3110    -4.4020    20.0640 c          1 M5X       0.531000
      3 C5           7.8140    -3.0450    19.5110 c5         1 M5X       0.149600
      4 C6           9.2690    -3.2320    22.8910 ca         1 M5X      -0.174000
      5 C7           9.8960    -2.0000    23.0670 ca         1 M5X       0.031000
      6 O2           6.5520    -5.1690    19.5060 o          1 M5X      -0.508000
      7 O3           6.7630    -2.2040    19.0800 oh         1 M5X      -0.628000
      8 C2           8.5650    -2.4800    20.6810 ca         1 M5X      -0.167300
      9 C1           9.1810    -1.2650    20.8550 ca         1 M5X       0.071000
     10 C3           8.6010    -3.4470    21.6980 ca         1 M5X       0.035000
     11 C            9.8440    -1.0330    22.0680 ca         1 M5X      -0.323500
     12 S           10.6290     0.5260    22.3150 sy         1 M5X       1.159600
     13 O           11.4530     0.4320    23.5020 o          1 M5X      -0.554000
     14 O1          11.2540     0.9540    21.0820 o          1 M5X      -0.554000
     15 N            9.3470     1.5400    22.5330 n8         1 M5X      -1.011100
     16 H1           7.7060    -5.3750    21.8820 hn         1 M5X       0.178000
     17 H2           8.5020    -3.2680    18.6850 h1         1 M5X       0.074700
     18 H3           9.2980    -3.9860    23.6650 ha         1 M5X       0.131000
     19 H4          10.4240    -1.7900    23.9860 ha         1 M5X       0.142000
     20 H5           6.3830    -2.5820    18.2760 ho         1 M5X       0.463000
     21 H6           9.1580    -0.5080    20.0830 ha         1 M5X       0.147000
     22 H7           8.9580     1.4760    23.4690 hn         1 M5X       0.476500
     23 H8           9.6020     2.4960    22.3000 hn         1 M5X       0.476500
@<TRIPOS>BOND
     1     1     2 1   
     2     1    10 1   
     3     1    16 1   
     4     2     3 1   
     5     2     6 2   
     6     3     7 1   
     7     3     8 1   
     8     3    17 1   
     9     4     5 ar  
    10     4    10 ar  
    11     4    18 1   
    12     5    11 ar  
    13     5    19 1   
    14     7    20 1   
    15     8     9 ar  
    16     8    10 ar  
    17     9    11 ar  
    18     9    21 1   
    19    11    12 1   
    20    12    13 2   
    21    12    14 2   
    22    12    15 1   
    23    15    22 1   
    24    15    23 1   
@<TRIPOS>SUBSTRUCTURE
     1 M5X         1 TEMP              0 ****  ****    0 ROOT
