@<TRIPOS>MOLECULE
M5X
   23    24     1     0     0
SMALL
No Charge or Current Charge


@<TRIPOS>ATOM
      1 N1           7.8500    -4.5680    21.2320 ns         1 M5X      -0.146000
      2 C4           7.3690    -4.5200    19.9400 c          1 M5X       0.531000
      3 C5           7.8530    -3.0970    19.4270 c5         1 M5X       0.149600
      4 C6           9.1170    -3.2000    22.9270 ca         1 M5X      -0.174000
      5 C7           9.7560    -1.9580    23.1200 ca         1 M5X       0.031000
      6 O2           6.7100    -5.3880    19.3770 o          1 M5X      -0.508000
      7 O3           6.7510    -2.2610    19.0260 oh         1 M5X      -0.628000
      8 C2           8.5630    -2.5300    20.6520 ca         1 M5X      -0.167300
      9 C1           9.1920    -1.2880    20.8190 ca         1 M5X       0.071000
     10 C3           8.5350    -3.4470    21.6810 ca         1 M5X       0.035000
     11 C            9.7950    -1.0060    22.0680 ca         1 M5X      -0.323500
     12 S           10.6070     0.5670    22.3180 sy         1 M5X       1.159600
     13 O           11.5530     0.4980    23.4280 o          1 M5X      -0.554000
     14 O1          10.9440     1.1910    21.0410 o          1 M5X      -0.554000
     15 N            9.4100     1.5050    22.8960 n8         1 M5X      -1.011100
     16 H1           7.6860    -5.3650    21.8330 hn         1 M5X       0.178000
     17 H2           8.5640    -3.2520    18.6030 h1         1 M5X       0.074700
     18 H3           9.0790    -3.9390    23.7230 ha         1 M5X       0.131000
     19 H4          10.2170    -1.7380    24.0830 ha         1 M5X       0.142000
     20 H5           6.2870    -2.7250    18.2930 ho         1 M5X       0.463000
     21 H6           9.2070    -0.5670    20.0020 ha         1 M5X       0.147000
     22 H7           9.8550     1.8570    23.7400 hn         1 M5X       0.476500
     23 H8           9.4890     2.3000    22.2670 hn         1 M5X       0.476500
@<TRIPOS>BOND
     1     1     2 1   
     2     1    10 1   
     3     1    16 1   
     4     2     3 1   
     5     2     6 2   
     6     3     7 1   
     7     3     8 1   
     8     3    17 1   
     9     4     5 ar  
    10     4    10 ar  
    11     4    18 1   
    12     5    11 ar  
    13     5    19 1   
    14     7    20 1   
    15     8     9 ar  
    16     8    10 ar  
    17     9    11 ar  
    18     9    21 1   
    19    11    12 1   
    20    12    13 2   
    21    12    14 2   
    22    12    15 1   
    23    15    22 1   
    24    15    23 1   
@<TRIPOS>SUBSTRUCTURE
     1 M5X         1 TEMP              0 ****  ****    0 ROOT
