@<TRIPOS>MOLECULE
M5Y
   17    17     1     0     0
SMALL
bcc


@<TRIPOS>ATOM
      1 C29          2.3050     0.6460    -0.4270 c3         1 M5Y       0.206100
      2 C30          0.8230     0.4470    -0.2780 ca         1 M5Y      -0.144300
      3 C31         -0.0610     1.5200    -0.2690 ca         1 M5Y      -0.077000
      4 C32         -1.4290     1.3530    -0.0970 ca         1 M5Y      -0.192000
      5 C33         -1.9110     0.0710     0.0730 ca         1 M5Y       0.166900
      6 C35         -1.0810    -1.0350     0.0740 ca         1 M5Y      -0.223000
      7 C36          0.2710    -0.8140    -0.0980 ca         1 M5Y       0.191900
      8 F34         -3.2270    -0.1190     0.2410 f          1 M5Y      -0.137900
      9 F37          1.0800    -1.8820    -0.1100 f          1 M5Y      -0.127900
     10 N28          2.9890     0.3600     0.8260 n8         1 M5Y      -0.878800
     11 H24          2.6970    -0.0290    -1.1910 h1         1 M5Y       0.038700
     12 H25          2.4750     1.6630    -0.8040 h1         1 M5Y       0.038700
     13 H26          0.3320     2.5210    -0.4040 ha         1 M5Y       0.134000
     14 H27         -2.1010     2.2010    -0.0940 ha         1 M5Y       0.154000
     15 H28         -1.4740    -2.0350     0.2040 ha         1 M5Y       0.168000
     16 H31          3.9880     0.4340     0.6820 hn         1 M5Y       0.340800
     17 H2           2.7540     1.0720     1.5060 hn         1 M5Y       0.340800
@<TRIPOS>BOND
     1     1     2 1   
     2     1    10 1   
     3     1    11 1   
     4     1    12 1   
     5     2     3 ar  
     6     2     7 ar  
     7     3     4 ar  
     8     3    13 1   
     9     4     5 ar  
    10     4    14 1   
    11     5     6 ar  
    12     5     8 1   
    13     6     7 ar  
    14     6    15 1   
    15     7     9 1   
    16    10    16 1   
    17    10    17 1   
@<TRIPOS>SUBSTRUCTURE
     1 M5Y         1 TEMP              0 ****  ****    0 ROOT
