@<TRIPOS>MOLECULE
M5Y
   17    17     1     0     0
SMALL
No Charge or Current Charge


@<TRIPOS>ATOM
      1 C29          2.3340     0.4940    -0.4230 c3         1 M5Y       0.206100
      2 C30          0.8310     0.3400    -0.2440 ca         1 M5Y      -0.144300
      3 C31          0.0190     1.4870    -0.1240 ca         1 M5Y      -0.059000
      4 C32         -1.3720     1.3540     0.0350 ca         1 M5Y      -0.174000
      5 C33         -1.9550     0.0790     0.0730 ca         1 M5Y       0.202000
      6 C35         -1.1600    -1.0670    -0.0480 ca         1 M5Y      -0.205000
      7 C36          0.2280    -0.9370    -0.2070 ca         1 M5Y       0.227000
      8 F34         -3.2910    -0.0440     0.2250 f          1 M5Y      -0.173000
      9 F37          0.9790    -2.0550    -0.3260 f          1 M5Y      -0.163000
     10 N28          3.0070     0.6720     0.8760 n8         1 M5Y      -0.989200
     11 H24          2.7560    -0.3860    -0.9270 h1         1 M5Y       0.038700
     12 H25          2.5410     1.3720    -1.0510 h1         1 M5Y       0.038700
     13 H26          0.4650     2.4790    -0.1540 ha         1 M5Y       0.116000
     14 H27         -1.9980     2.2380     0.1280 ha         1 M5Y       0.136000
     15 H28         -1.6150    -2.0520    -0.0210 ha         1 M5Y       0.150000
     16 H31          4.0020     0.8640     0.7110 hn         1 M5Y       0.396000
     17 H2           2.6600     1.5360     1.3100 hn         1 M5Y       0.396000
@<TRIPOS>BOND
     1     1     2 1   
     2     1    10 1   
     3     1    11 1   
     4     1    12 1   
     5     2     3 ar  
     6     2     7 ar  
     7     3     4 ar  
     8     3    13 1   
     9     4     5 ar  
    10     4    14 1   
    11     5     6 ar  
    12     5     8 1   
    13     6     7 ar  
    14     6    15 1   
    15     7     9 1   
    16    10    16 1   
    17    10    17 1   
@<TRIPOS>SUBSTRUCTURE
     1 M5Y         1 TEMP              0 ****  ****    0 ROOT
