@<TRIPOS>MOLECULE
M5Z
  104   109     1     0     0
SMALL
No Charge or Current Charge


@<TRIPOS>ATOM
      1 C11          1.5590    -0.1480    -0.5020 c6         1 M5Z       0.360300
      2 O11          1.5270     1.2770    -0.2550 os         1 M5Z      -0.483000
      3 C16         10.4110    -1.2300     0.7520 ca         1 M5Z      -0.079300
      4 C21          1.6400    -0.9600     0.8420 c6         1 M5Z       0.104500
      5 N21          0.5430    -0.6950     1.8370 n8         1 M5Z      -1.011200
      6 C26         10.9840    -2.2600     1.5250 ca         1 M5Z      -0.106000
      7 C31          3.0120    -0.7270     1.5230 c6         1 M5Z       0.189300
      8 O31          2.9990    -1.4690     2.7480 oh         1 M5Z      -0.710000
      9 C36         12.1900    -2.0410     2.2140 ca         1 M5Z      -0.110000
     10 C41          4.1510    -1.1100     0.5390 c6         1 M5Z       0.132300
     11 O41          5.4760    -0.9310     1.0910 os         1 M5Z      -0.445000
     12 C46         12.8290    -0.7920     2.1360 ca         1 M5Z      -0.112000
     13 C51          3.9940    -0.2330    -0.7340 c6         1 M5Z       0.097300
     14 O51          2.6980    -0.4590    -1.3460 os         1 M5Z      -0.466000
     15 C56         12.2610     0.2390     1.3690 ca         1 M5Z      -0.110000
     16 C61          5.1620    -0.5620    -1.6950 c6         1 M5Z       0.161600
     17 O61          6.4190    -0.4410    -0.9880 os         1 M5Z      -0.470000
     18 C66         11.0550     0.0210     0.6800 ca         1 M5Z      -0.106000
     19 CBJ          6.5120    -1.3040     0.1630 c6         1 M5Z       0.377300
     20 C12         -0.9220     4.4600    -1.7950 c6         1 M5Z       0.119500
     21 C22          0.5650     4.4730    -2.1920 c6         1 M5Z      -0.114400
     22 C32          1.3550     3.5330    -1.2430 c6         1 M5Z       0.169500
     23 C42          0.7770     2.0700    -1.2210 c6         1 M5Z       0.179300
     24 C52         -0.7630     2.0720    -0.9000 c6         1 M5Z       0.160300
     25 C62         -1.4990     3.0310    -1.8930 c6         1 M5Z       0.151300
     26 N12         -1.7620     5.3780    -2.6110 n8         1 M5Z      -1.017200
     27 N32          2.7910     3.5520    -1.6040 n8         1 M5Z      -0.991200
     28 O52         -1.2850     0.7190    -0.9420 os         1 M5Z      -0.473000
     29 O62         -2.9010     3.2050    -1.6870 oh         1 M5Z      -0.747000
     30 C43         -2.9200    -1.9160    -0.1240 c5         1 M5Z       0.160300
     31 O43         -2.1230    -0.8810     0.5140 os         1 M5Z      -0.462000
     32 C13         -2.4160     0.3930    -0.1070 c5         1 M5Z       0.358300
     33 C23         -3.6570     0.1560    -1.0510 c5         1 M5Z       0.118300
     34 O23         -4.5670     1.2650    -1.1520 oh         1 M5Z      -0.718000
     35 C3          -4.2470    -1.1740    -0.4700 c5         1 M5Z       0.148300
     36 O33         -4.9420    -0.9440     0.7920 os         1 M5Z      -0.447000
     37 C53         -2.1700    -2.5200    -1.3540 c3         1 M5Z       0.144600
     38 O53         -1.0800    -3.3650    -0.9400 oh         1 M5Z      -0.714000
     39 C54         -8.5190    -1.3590     0.1150 c6         1 M5Z       0.153300
     40 O54         -7.1010    -1.6550     0.2450 os         1 M5Z      -0.486000
     41 C14         -6.3220    -0.5290     0.7160 c6         1 M5Z       0.403300
     42 C24         -6.8240    -0.0830     2.1440 c6         1 M5Z       0.135500
     43 N24         -6.5600    -1.1240     3.2080 n8         1 M5Z      -1.011200
     44 C34         -8.3490     0.2660     2.0650 c6         1 M5Z       0.131300
     45 O34         -8.5640     1.4290     1.2450 oh         1 M5Z      -0.657000
     46 C44         -9.1210    -0.9760     1.5120 c6         1 M5Z       0.123300
     47 O44         -8.9520    -2.0500     2.4550 oh         1 M5Z      -0.733000
     48 H11          0.6480    -0.4690    -1.0250 h2         1 M5Z       0.090700
     49 H21          1.5720    -2.0260     0.5760 h1         1 M5Z       0.072700
     50 HN21         0.4520     0.3250     1.9370 hn         1 M5Z       0.426000
     51 HN2A        -0.3600    -0.9370     1.3920 hn         1 M5Z       0.426000
     52 H26         10.4950    -3.2290     1.5920 ha         1 M5Z       0.111000
     53 H31          3.1070     0.3460     1.7510 h1         1 M5Z       0.051700
     54 HO31         2.0260    -1.4600     2.9520 ho         1 M5Z       0.531000
     55 H36         12.6280    -2.8400     2.8090 ha         1 M5Z       0.110500
     56 H41          4.0340    -2.1680     0.2610 h1         1 M5Z       0.049700
     57 H45          9.1020    -0.9020    -0.9330 hc         1 M5Z       0.052700
     58 H45A         9.0070    -2.5210    -0.2670 hc         1 M5Z       0.052700
     59 H46         13.7620    -0.6240     2.6700 ha         1 M5Z       0.111000
     60 H51          4.0730     0.8270    -0.4520 h1         1 M5Z       0.070700
     61 H56         12.7540     1.2070     1.3090 ha         1 M5Z       0.110500
     62 H61          5.0600    -1.5860    -2.0830 h1         1 M5Z       0.059200
     63 H61A         5.1580     0.1330    -2.5460 h1         1 M5Z       0.059200
     64 H66         10.6210     0.8250     0.0900 ha         1 M5Z       0.111000
     65 HBJ          6.4170    -2.3610    -0.1270 h2         1 M5Z       0.023700
     66 H12         -1.0080     4.7930    -0.7470 h1         1 M5Z       0.068700
     67 H22          0.6860     4.1500    -3.2350 hc         1 M5Z       0.055700
     68 H22A         0.9630     5.4950    -2.1230 hc         1 M5Z       0.055700
     69 H32          1.2850     3.9310    -0.2190 h1         1 M5Z       0.026700
     70 H42          0.9250     1.6400    -2.2220 h1         1 M5Z       0.076700
     71 H52         -0.8850     2.4610     0.1220 h1         1 M5Z       0.058700
     72 H62         -1.3280     2.6570    -2.9140 h1         1 M5Z       0.049700
     73 HN12        -1.4960     6.3500    -2.3980 hn         1 M5Z       0.409500
     74 HN1A        -1.4930     5.2880    -3.6010 hn         1 M5Z       0.409500
     75 HN32         3.2160     4.4080    -1.2290 hn         1 M5Z       0.404500
     76 HN3A         3.2460     2.8020    -1.0710 hn         1 M5Z       0.404500
     77 HO62        -2.9730     4.1550    -2.0030 ho         1 M5Z       0.545000
     78 H43         -3.1050    -2.7270     0.5930 h1         1 M5Z       0.104700
     79 H13         -2.6010     1.1570     0.6590 h2         1 M5Z       0.069700
     80 H23         -3.2830    -0.0530    -2.0620 h1         1 M5Z       0.054700
     81 HO23        -3.9840     2.0560    -1.3780 ho         1 M5Z       0.545000
     82 H3          -4.8800    -1.7310    -1.1730 h1         1 M5Z       0.078700
     83 H53         -2.8900    -3.1070    -1.9400 h1         1 M5Z       0.028700
     84 H53A        -1.7990    -1.7160    -2.0020 h1         1 M5Z       0.028700
     85 HO53        -0.6910    -3.7590    -1.7560 ho         1 M5Z       0.507000
     86 H54         -8.6430    -0.5130    -0.5780 h1         1 M5Z       0.054700
     87 H14         -6.4350     0.3140     0.0200 h2         1 M5Z       0.061700
     88 H24         -6.2620     0.8210     2.4230 h1         1 M5Z       0.062700
     89 HN24        -5.6610    -1.5700     2.9680 hn         1 M5Z       0.415000
     90 HN2B        -6.3360    -0.6430     4.0910 hn         1 M5Z       0.415000
     91 H34         -8.7070     0.4770     3.0840 h1         1 M5Z       0.047700
     92 HO34        -9.4400     1.8020     1.4920 ho         1 M5Z       0.450000
     93 H44        -10.1870    -0.7280     1.3950 h1         1 M5Z       0.060700
     94 HO44        -8.0190    -1.8820     2.8030 ho         1 M5Z       0.551000
     95 HN64        -7.7150    -3.1260    -1.8050 hn         1 M5Z       0.396500
     96 HN6A        -9.1020    -3.8890    -2.1330 hn         1 M5Z       0.396500
     97 C35          7.8750    -1.0490     0.8510 c3         1 M5Z      -0.064400
     98 C45          9.1020    -1.4630     0.0090 c3         1 M5Z      -0.028100
     99 C64         -9.2230    -2.6030    -0.5220 c3         1 M5Z       0.158800
    100 N64         -8.7280    -2.9670    -1.8760 n8         1 M5Z      -1.001200
    101 H35          7.9040    -1.6000     1.7980 hc         1 M5Z       0.065700
    102 H35A         7.9620     0.0140     1.1090 hc         1 M5Z       0.065700
    103 H64         -9.0770    -3.4650     0.1440 h1         1 M5Z       0.045700
    104 H64A       -10.3030    -2.4070    -0.5850 h1         1 M5Z       0.045700
@<TRIPOS>BOND
     1     1     2 1   
     2     1     4 1   
     3     1    14 1   
     4     1    48 1   
     5     2    23 1   
     6     3     6 ar  
     7     3    18 ar  
     8     3    98 1   
     9     4     5 1   
    10     4     7 1   
    11     4    49 1   
    12     5    50 1   
    13     5    51 1   
    14     6     9 ar  
    15     6    52 1   
    16     7     8 1   
    17     7    10 1   
    18     7    53 1   
    19     8    54 1   
    20     9    12 ar  
    21     9    55 1   
    22    10    11 1   
    23    10    13 1   
    24    10    56 1   
    25    11    19 1   
    26    12    15 ar  
    27    12    59 1   
    28    13    14 1   
    29    13    16 1   
    30    13    60 1   
    31    15    18 ar  
    32    15    61 1   
    33    16    17 1   
    34    16    62 1   
    35    16    63 1   
    36    17    19 1   
    37    18    64 1   
    38    19    65 1   
    39    19    97 1   
    40    20    21 1   
    41    20    25 1   
    42    20    26 1   
    43    20    66 1   
    44    21    22 1   
    45    21    67 1   
    46    21    68 1   
    47    22    23 1   
    48    22    27 1   
    49    22    69 1   
    50    23    24 1   
    51    23    70 1   
    52    24    25 1   
    53    24    28 1   
    54    24    71 1   
    55    25    29 1   
    56    25    72 1   
    57    26    73 1   
    58    26    74 1   
    59    27    75 1   
    60    27    76 1   
    61    28    32 1   
    62    29    77 1   
    63    30    31 1   
    64    30    35 1   
    65    30    37 1   
    66    30    78 1   
    67    31    32 1   
    68    32    33 1   
    69    32    79 1   
    70    33    34 1   
    71    33    35 1   
    72    33    80 1   
    73    34    81 1   
    74    35    36 1   
    75    35    82 1   
    76    36    41 1   
    77    37    38 1   
    78    37    83 1   
    79    37    84 1   
    80    38    85 1   
    81    39    40 1   
    82    39    46 1   
    83    39    86 1   
    84    39    99 1   
    85    40    41 1   
    86    41    42 1   
    87    41    87 1   
    88    42    43 1   
    89    42    44 1   
    90    42    88 1   
    91    43    89 1   
    92    43    90 1   
    93    44    45 1   
    94    44    46 1   
    95    44    91 1   
    96    45    92 1   
    97    46    47 1   
    98    46    93 1   
    99    47    94 1   
   100    57    98 1   
   101    58    98 1   
   102    95   100 1   
   103    96   100 1   
   104    97    98 1   
   105    97   101 1   
   106    97   102 1   
   107    99   100 1   
   108    99   103 1   
   109    99   104 1   
@<TRIPOS>SUBSTRUCTURE
     1 M5Z         1 TEMP              0 ****  ****    0 ROOT
