@<TRIPOS>MOLECULE
M5Z
  104   109     1     0     0
SMALL
bcc


@<TRIPOS>ATOM
      1 C11          1.5460    -0.3220    -0.3780 c6         1 M5Z       0.313900
      2 O11          1.3180     0.8970     0.2700 os         1 M5Z      -0.436600
      3 C16         10.2840    -0.9170     0.1850 ca         1 M5Z      -0.079300
      4 C21          1.7520    -1.4000     0.6960 c6         1 M5Z       0.104500
      5 N21          0.7080    -1.5050     1.6910 n8         1 M5Z      -0.900800
      6 C26         10.9380    -2.0870     0.5670 ca         1 M5Z      -0.124000
      7 C31          3.1010    -1.2500     1.4110 c6         1 M5Z       0.166100
      8 O31          3.2760    -2.3070     2.3160 oh         1 M5Z      -0.587800
      9 C36         12.1620    -2.0390     1.2220 ca         1 M5Z      -0.128000
     10 C41          4.1720    -1.2570     0.3490 c6         1 M5Z       0.109100
     11 O41          5.4620    -1.0860     0.8960 os         1 M5Z      -0.398600
     12 C46         12.7510    -0.8150     1.5100 ca         1 M5Z      -0.130000
     13 C51          3.8970    -0.1150    -0.6260 c6         1 M5Z       0.074100
     14 O51          2.6460    -0.2670    -1.2540 os         1 M5Z      -0.419600
     15 C56         12.1080     0.3580     1.1350 ca         1 M5Z      -0.128000
     16 C61          4.9980    -0.1030    -1.6720 c6         1 M5Z       0.138400
     17 O61          6.2440    -0.0280    -1.0060 os         1 M5Z      -0.423600
     18 C66         10.8860     0.3040     0.4790 ca         1 M5Z      -0.124000
     19 CBJ          6.4410    -1.0870    -0.1100 c6         1 M5Z       0.330900
     20 C12         -0.6500     4.5040    -0.7930 c6         1 M5Z       0.119500
     21 C22          0.8710     4.4360    -0.8370 c6         1 M5Z      -0.114400
     22 C32          1.3990     3.2710    -0.0050 c6         1 M5Z       0.169500
     23 C42          0.8010     1.9560    -0.5140 c6         1 M5Z       0.156100
     24 C52         -0.7270     2.0200    -0.4190 c6         1 M5Z       0.137100
     25 C62         -1.2350     3.1780    -1.2690 c6         1 M5Z       0.128100
     26 N12         -1.2690     5.5620    -1.5750 n8         1 M5Z      -0.906800
     27 N32          2.8480     3.2300    -0.0860 n8         1 M5Z      -0.880800
     28 O52         -1.2750     0.8040    -0.8820 os         1 M5Z      -0.426600
     29 O62         -2.6430     3.2390    -1.2190 oh         1 M5Z      -0.624800
     30 C43         -3.0850    -1.8690     0.0440 c5         1 M5Z       0.137100
     31 O43         -2.1980    -0.8280     0.4330 os         1 M5Z      -0.415600
     32 C13         -2.4490     0.3510    -0.2870 c5         1 M5Z       0.311900
     33 C23         -3.4890    -0.0190    -1.3510 c5         1 M5Z       0.095100
     34 O23         -4.3260     1.0230    -1.7390 oh         1 M5Z      -0.595800
     35 C3          -4.2320    -1.1650    -0.6740 c5         1 M5Z       0.125100
     36 O33         -5.1130    -0.6550     0.3030 os         1 M5Z      -0.400600
     37 C53         -2.3770    -2.8990    -0.8180 c3         1 M5Z       0.121400
     38 O53         -1.3430    -3.4710    -0.0520 oh         1 M5Z      -0.591800
     39 C54         -8.4700    -1.7390     0.0690 c6         1 M5Z       0.130100
     40 O54         -7.0830    -1.7100     0.3680 os         1 M5Z      -0.439600
     41 C14         -6.4440    -0.5350    -0.0560 c6         1 M5Z       0.356900
     42 C24         -7.0320     0.7000     0.6230 c6         1 M5Z       0.135500
     43 N24         -6.8270     0.6350     2.0680 n8         1 M5Z      -0.900800
     44 C34         -8.5430     0.7490     0.3650 c6         1 M5Z       0.108100
     45 O34         -8.7310     1.0200    -1.0020 oh         1 M5Z      -0.594800
     46 C44         -9.1860    -0.5900     0.7790 c6         1 M5Z       0.100100
     47 O44         -9.1820    -0.7310     2.1780 oh         1 M5Z      -0.610800
     48 H11          0.6990    -0.5930    -1.0110 h2         1 M5Z       0.090700
     49 H21          1.7830    -2.3550     0.1590 h1         1 M5Z       0.072700
     50 HN21         0.4420    -0.5840     2.0180 hn         1 M5Z       0.370800
     51 HN2A        -0.1190    -1.9130     1.2750 hn         1 M5Z       0.370800
     52 H26         10.4880    -3.0470     0.3440 ha         1 M5Z       0.129000
     53 H31          3.1280    -0.2800     1.9370 h1         1 M5Z       0.051700
     54 HO31         2.3990    -2.4390     2.7090 ho         1 M5Z       0.432000
     55 H36         12.6560    -2.9600     1.5040 ha         1 M5Z       0.128500
     56 H41          4.1260    -2.2150    -0.1980 h1         1 M5Z       0.049700
     57 H45          8.8390    -0.1320    -1.1790 hc         1 M5Z       0.052700
     58 H45A         8.8650    -1.8830    -1.0870 hc         1 M5Z       0.052700
     59 H46         13.7050    -0.7750     2.0200 ha         1 M5Z       0.129000
     60 H51          3.9480     0.8300    -0.0740 h1         1 M5Z       0.070700
     61 H56         12.5610     1.3170     1.3490 ha         1 M5Z       0.128500
     62 H61          4.9420    -1.0080    -2.2930 h1         1 M5Z       0.059200
     63 H61A         4.9210     0.7660    -2.3250 h1         1 M5Z       0.059200
     64 H66         10.3940     1.2260     0.1880 ha         1 M5Z       0.129000
     65 HBJ          6.3830    -2.0420    -0.6650 h2         1 M5Z       0.023700
     66 H12         -0.9630     4.6550     0.2470 h1         1 M5Z       0.068700
     67 H22          1.2100     4.3280    -1.8730 hc         1 M5Z       0.055700
     68 H22A         1.2920     5.3720    -0.4600 hc         1 M5Z       0.055700
     69 H32          1.0430     3.4140     1.0300 h1         1 M5Z       0.026700
     70 H42          1.0990     1.8290    -1.5640 h1         1 M5Z       0.076700
     71 H52         -1.0120     2.1830     0.6310 h1         1 M5Z       0.058700
     72 H62         -0.9010     3.0090    -2.3070 h1         1 M5Z       0.049700
     73 HN12        -1.1270     6.4610    -1.1330 hn         1 M5Z       0.354300
     74 HN1A        -0.8390     5.6200    -2.4910 hn         1 M5Z       0.354300
     75 HN32         3.2160     4.1400     0.1650 hn         1 M5Z       0.349300
     76 HN3A         3.2060     2.5960     0.6170 hn         1 M5Z       0.349300
     77 HO62        -2.8610     4.1450    -1.4940 ho         1 M5Z       0.446000
     78 H43         -3.4520    -2.3660     0.9480 h1         1 M5Z       0.104700
     79 H13         -2.8480     1.1120     0.3980 h2         1 M5Z       0.069700
     80 H23         -2.9440    -0.4330    -2.2150 h1         1 M5Z       0.054700
     81 HO23        -3.8190     1.8520    -1.7040 ho         1 M5Z       0.446000
     82 H3          -4.7530    -1.8230    -1.3770 h1         1 M5Z       0.078700
     83 H53         -3.1130    -3.6530    -1.1250 h1         1 M5Z       0.028700
     84 H53A        -1.9900    -2.4320    -1.7320 h1         1 M5Z       0.028700
     85 HO53        -0.7950    -4.0070    -0.6310 ho         1 M5Z       0.408000
     86 H54         -8.6190    -1.6180    -1.0160 h1         1 M5Z       0.054700
     87 H14         -6.5560    -0.4230    -1.1440 h2         1 M5Z       0.061700
     88 H24         -6.5570     1.5770     0.1650 h1         1 M5Z       0.062700
     89 HN24        -5.8540     0.4520     2.2790 hn         1 M5Z       0.359800
     90 HN2B        -7.0390     1.5360     2.4780 hn         1 M5Z       0.359800
     91 H34         -8.9760     1.5480     0.9870 h1         1 M5Z       0.047700
     92 HO34        -9.6770     1.0550    -1.1790 ho         1 M5Z       0.411000
     93 H44        -10.2340    -0.5920     0.4510 h1         1 M5Z       0.060700
     94 HO44        -8.2930    -0.4310     2.4650 ho         1 M5Z       0.452000
     95 HN64        -7.3820    -4.1920    -0.1390 hn         1 M5Z       0.341300
     96 HN6A        -8.7480    -5.0450    -0.0840 hn         1 M5Z       0.341300
     97 C35          7.8020    -0.9400     0.5340 c3         1 M5Z      -0.064400
     98 C45          8.9400    -0.9710    -0.4880 c3         1 M5Z      -0.028100
     99 C64         -8.9880    -3.1090     0.4620 c3         1 M5Z       0.158800
    100 N64         -8.3710    -4.1460    -0.3520 n8         1 M5Z      -0.890800
    101 H35          7.9290    -1.7610     1.2440 hc         1 M5Z       0.065700
    102 H35A         7.8370    -0.0090     1.1080 hc         1 M5Z       0.065700
    103 H64         -8.8480    -3.2490     1.5410 h1         1 M5Z       0.045700
    104 H64A       -10.0660    -3.1240     0.2810 h1         1 M5Z       0.045700
@<TRIPOS>BOND
     1     1     2 1   
     2     1     4 1   
     3     1    14 1   
     4     1    48 1   
     5     2    23 1   
     6     3     6 ar  
     7     3    18 ar  
     8     3    98 1   
     9     4     5 1   
    10     4     7 1   
    11     4    49 1   
    12     5    50 1   
    13     5    51 1   
    14     6     9 ar  
    15     6    52 1   
    16     7     8 1   
    17     7    10 1   
    18     7    53 1   
    19     8    54 1   
    20     9    12 ar  
    21     9    55 1   
    22    10    11 1   
    23    10    13 1   
    24    10    56 1   
    25    11    19 1   
    26    12    15 ar  
    27    12    59 1   
    28    13    14 1   
    29    13    16 1   
    30    13    60 1   
    31    15    18 ar  
    32    15    61 1   
    33    16    17 1   
    34    16    62 1   
    35    16    63 1   
    36    17    19 1   
    37    18    64 1   
    38    19    65 1   
    39    19    97 1   
    40    20    21 1   
    41    20    25 1   
    42    20    26 1   
    43    20    66 1   
    44    21    22 1   
    45    21    67 1   
    46    21    68 1   
    47    22    23 1   
    48    22    27 1   
    49    22    69 1   
    50    23    24 1   
    51    23    70 1   
    52    24    25 1   
    53    24    28 1   
    54    24    71 1   
    55    25    29 1   
    56    25    72 1   
    57    26    73 1   
    58    26    74 1   
    59    27    75 1   
    60    27    76 1   
    61    28    32 1   
    62    29    77 1   
    63    30    31 1   
    64    30    35 1   
    65    30    37 1   
    66    30    78 1   
    67    31    32 1   
    68    32    33 1   
    69    32    79 1   
    70    33    34 1   
    71    33    35 1   
    72    33    80 1   
    73    34    81 1   
    74    35    36 1   
    75    35    82 1   
    76    36    41 1   
    77    37    38 1   
    78    37    83 1   
    79    37    84 1   
    80    38    85 1   
    81    39    40 1   
    82    39    46 1   
    83    39    86 1   
    84    39    99 1   
    85    40    41 1   
    86    41    42 1   
    87    41    87 1   
    88    42    43 1   
    89    42    44 1   
    90    42    88 1   
    91    43    89 1   
    92    43    90 1   
    93    44    45 1   
    94    44    46 1   
    95    44    91 1   
    96    45    92 1   
    97    46    47 1   
    98    46    93 1   
    99    47    94 1   
   100    57    98 1   
   101    58    98 1   
   102    95   100 1   
   103    96   100 1   
   104    97    98 1   
   105    97   101 1   
   106    97   102 1   
   107    99   100 1   
   108    99   103 1   
   109    99   104 1   
@<TRIPOS>SUBSTRUCTURE
     1 M5Z         1 TEMP              0 ****  ****    0 ROOT
