@<TRIPOS>MOLECULE
M60
   87    88     1     0     0
SMALL
No Charge or Current Charge


@<TRIPOS>ATOM
      1 C11         41.9290    30.2220    23.8890 c          1 M60       0.633100
      2 O11         42.0930    31.2950    23.3310 o          1 M60      -0.575000
      3 O21         42.6980    29.1130    23.7220 os         1 M60      -0.455100
      4 C21         43.7830    29.1910    22.7840 c3         1 M60       0.230900
      5 C31         44.5070    27.8520    22.7760 ca         1 M60      -0.086300
      6 C81         45.6250    27.6420    23.6080 ca         1 M60      -0.084000
      7 C71         46.2910    26.4040    23.6020 ca         1 M60      -0.120000
      8 C61         45.8440    25.3680    22.7650 ca         1 M60      -0.111000
      9 C51         44.7280    25.5700    21.9350 ca         1 M60      -0.120000
     10 C41         44.0610    26.8080    21.9400 ca         1 M60      -0.084000
     11 N1          40.9730    29.9530    24.8260 ns         1 M60      -0.454900
     12 CA2         39.9560    30.9100    25.3140 c3         1 M60       0.042700
     13 C20         39.7550    30.7220    26.8460 c          1 M60       0.591100
     14 O2          40.1250    29.7220    27.4500 o          1 M60      -0.600100
     15 CB2         38.6120    30.7570    24.5480 c3         1 M60      -0.070400
     16 CG2         38.7000    31.0220    23.0200 c3         1 M60      -0.210400
     17 CD2         37.2970    30.9590    22.3890 c          1 M60       0.716000
     18 OZ1         36.8870    29.8740    22.0050 o          1 M60      -0.732500
     19 OZ2         36.6350    31.9850    22.3550 o          1 M60      -0.732500
     20 N3          39.1260    31.7710    27.4870 ns         1 M60      -0.487900
     21 CA3         38.8520    31.8420    28.9430 c3         1 M60       0.038700
     22 C30         37.4350    32.4350    29.2010 c          1 M60       0.580100
     23 O3          36.7920    33.0150    28.3330 o          1 M60      -0.489100
     24 CB3         39.9660    32.6260    29.7080 c3         1 M60      -0.065700
     25 CZ1         41.3360    31.9090    29.6630 c3         1 M60      -0.089600
     26 CZ2         40.0970    34.0990    29.2450 c3         1 M60      -0.089600
     27 N4          36.9730    32.2640    30.5030 ns         1 M60      -0.392500
     28 N5          35.5630    32.5030    30.7680 n          1 M60      -0.218400
     29 O6          34.0420    33.1590    32.3850 o          1 M60      -0.593100
     30 O7          32.2130    31.6760    29.8130 o          1 M60      -0.710000
     31 O8          33.3190    33.3590    29.0490 o          1 M60      -0.710000
     32 O9          36.4990    35.8440    31.2130 oh         1 M60      -0.582000
     33 C3          36.2560    33.9790    32.7590 c3         1 M60      -0.155400
     34 C12         34.5800    31.6060    30.0910 c3         1 M60      -0.043000
     35 C1          36.8840    36.3140    33.6180 c          1 M60       0.543100
     36 C16         35.1930    33.1950    31.9640 c          1 M60       0.624100
     37 C17         33.2620    32.2780    29.6210 c          1 M60       0.729000
     38 C2          36.0870    35.5000    32.5510 c3         1 M60       0.122300
     39 C44         37.3670    39.9700    36.4880 ca         1 M60      -0.071300
     40 C34         36.4640    40.4820    37.4410 ca         1 M60      -0.106500
     41 C23         36.9310    41.2700    38.5080 ca         1 M60      -0.114000
     42 C13         38.3030    41.5500    38.6270 ca         1 M60      -0.120000
     43 C64         39.2080    41.0410    37.6800 ca         1 M60      -0.114000
     44 C54         38.7410    40.2530    36.6130 ca         1 M60      -0.106500
     45 C77         36.8590    39.1120    35.3370 c3         1 M60      -0.059100
     46 C14         36.6690    37.6400    35.7540 c3         1 M60       0.108000
     47 H21         44.4860    29.9870    23.0660 h1         1 M60       0.048200
     48 H21A        43.4090    29.4130    21.7750 h1         1 M60       0.048200
     49 H81         45.9760    28.4380    24.2620 ha         1 M60       0.119500
     50 H71         47.1530    26.2480    24.2470 ha         1 M60       0.106500
     51 H61         46.3590    24.4100    22.7610 ha         1 M60       0.101000
     52 H51         44.3800    24.7680    21.2880 ha         1 M60       0.106500
     53 H41         43.1960    26.9560    21.2970 ha         1 M60       0.119500
     54 HN1         41.0050    29.0270    25.2340 hn         1 M60       0.345500
     55 HA2         40.3340    31.9300    25.1660 h1         1 M60       0.057700
     56 HB2         38.2150    29.7470    24.7160 hc         1 M60       0.077700
     57 HB2A        37.8790    31.4510    24.9780 hc         1 M60       0.077700
     58 HG2         39.1230    32.0290    22.9140 hc         1 M60       0.012200
     59 HG2A        39.3350    30.2290    22.6060 hc         1 M60       0.012200
     60 HN3         38.8310    32.5500    26.9080 hn         1 M60       0.321500
     61 HA3         38.8230    30.8190    29.3390 h1         1 M60       0.057700
     62 HB3         39.6750    32.6540    30.7650 hc         1 M60       0.040700
     63 HZ1         42.0600    32.4190    30.3110 hc         1 M60       0.037033
     64 HZ1A        41.2440    30.8730    30.0110 hc         1 M60       0.037033
     65 HZ1B        41.7440    31.8960    28.6450 hc         1 M60       0.037033
     66 HZ2         40.8410    34.6280    29.8530 hc         1 M60       0.037033
     67 HZ2A        40.4150    34.1570    28.1970 hc         1 M60       0.037033
     68 HZ2B        39.1450    34.6320    29.3460 hc         1 M60       0.037033
     69 HN4         37.4890    31.6590    31.1360 hn         1 M60       0.294500
     70 HO9         37.4570    36.0600    31.2610 ho         1 M60       0.433000
     71 H10         36.1000    33.7670    33.8240 hc         1 M60       0.063200
     72 H10A        37.2800    33.7050    32.4870 hc         1 M60       0.063200
     73 H12         35.0450    31.1450    29.2120 h1         1 M60       0.028200
     74 H12A        34.3240    30.7960    30.7860 h1         1 M60       0.028200
     75 H94         35.0260    35.7510    32.6820 h1         1 M60       0.040700
     76 H34         35.4000    40.2690    37.3570 ha         1 M60       0.117000
     77 H23         36.2300    41.6620    39.2410 ha         1 M60       0.106500
     78 H13         38.6640    42.1600    39.4520 ha         1 M60       0.104000
     79 H64         40.2710    41.2570    37.7720 ha         1 M60       0.106500
     80 H54         39.4500    39.8610    35.8860 ha         1 M60       0.117000
     81 H77         37.5540    39.1610    34.4900 hc         1 M60       0.057700
     82 H77A        35.9030    39.5060    34.9710 hc         1 M60       0.057700
     83 H14         35.9720    37.5900    36.6010 h1         1 M60       0.049200
     84 H14A        37.6300    37.2240    36.0850 h1         1 M60       0.049200
     85 HN6         35.1460    36.5960    34.6710 hn         1 M60       0.313500
     86 O5          38.0840    36.5320    33.5140 o          1 M60      -0.587100
     87 N6          36.1360    36.8150    34.6660 ns         1 M60      -0.520900
@<TRIPOS>BOND
     1     1     2 2   
     2     1     3 1   
     3     1    11 1   
     4     3     4 1   
     5     4     5 1   
     6     4    47 1   
     7     4    48 1   
     8     5     6 ar  
     9     5    10 ar  
    10     6     7 ar  
    11     6    49 1   
    12     7     8 ar  
    13     7    50 1   
    14     8     9 ar  
    15     8    51 1   
    16     9    10 ar  
    17     9    52 1   
    18    10    53 1   
    19    11    12 1   
    20    11    54 1   
    21    12    13 1   
    22    12    15 1   
    23    12    55 1   
    24    13    14 2   
    25    13    20 1   
    26    15    16 1   
    27    15    56 1   
    28    15    57 1   
    29    16    17 1   
    30    16    58 1   
    31    16    59 1   
    32    17    18 1   
    33    17    19 1   
    34    20    21 1   
    35    20    60 1   
    36    21    22 1   
    37    21    24 1   
    38    21    61 1   
    39    22    23 2   
    40    22    27 1   
    41    24    25 1   
    42    24    26 1   
    43    24    62 1   
    44    25    63 1   
    45    25    64 1   
    46    25    65 1   
    47    26    66 1   
    48    26    67 1   
    49    26    68 1   
    50    27    28 1   
    51    27    69 1   
    52    28    34 1   
    53    28    36 1   
    54    29    36 2   
    55    30    37 1   
    56    31    37 1   
    57    32    38 1   
    58    32    70 1   
    59    33    36 1   
    60    33    38 1   
    61    33    71 1   
    62    33    72 1   
    63    34    37 1   
    64    34    73 1   
    65    34    74 1   
    66    35    38 1   
    67    35    86 2   
    68    35    87 1   
    69    38    75 1   
    70    39    40 ar  
    71    39    44 ar  
    72    39    45 1   
    73    40    41 ar  
    74    40    76 1   
    75    41    42 ar  
    76    41    77 1   
    77    42    43 ar  
    78    42    78 1   
    79    43    44 ar  
    80    43    79 1   
    81    44    80 1   
    82    45    46 1   
    83    45    81 1   
    84    45    82 1   
    85    46    83 1   
    86    46    84 1   
    87    46    87 1   
    88    85    87 1   
@<TRIPOS>SUBSTRUCTURE
     1 M60         1 TEMP              0 ****  ****    0 ROOT
