@<TRIPOS>MOLECULE
M60
   87    88     1     0     0
SMALL
abcg2


@<TRIPOS>ATOM
      1 C11         41.9780    30.4210    25.2040 c          1 M60       0.633100
      2 O11         42.7170    30.9560    26.0050 o          1 M60      -0.575000
      3 O21         42.2620    29.2890    24.5530 os         1 M60      -0.455100
      4 C21         43.5130    28.6590    24.8450 c3         1 M60       0.230900
      5 C31         43.4890    27.3110    24.1910 ca         1 M60      -0.086300
      6 C81         42.7120    26.2870    24.7310 ca         1 M60      -0.084000
      7 C71         42.6720    25.0400    24.1270 ca         1 M60      -0.120000
      8 C61         43.4100    24.8010    22.9730 ca         1 M60      -0.111000
      9 C51         44.1850    25.8150    22.4290 ca         1 M60      -0.120000
     10 C41         44.2210    27.0650    23.0360 ca         1 M60      -0.084000
     11 N1          40.7740    30.8990    24.8380 ns         1 M60      -0.454900
     12 CA2         40.1970    32.0360    25.5020 c3         1 M60       0.042700
     13 C20         39.9400    31.7270    26.9750 c          1 M60       0.591100
     14 O2          39.6130    30.6160    27.3580 o          1 M60      -0.600100
     15 CB2         38.8710    32.4170    24.8330 c3         1 M60      -0.070400
     16 CG2         39.0400    32.8700    23.3920 c3         1 M60      -0.210400
     17 CD2         37.7410    33.3110    22.6830 c          1 M60       0.716000
     18 OZ1         37.8380    33.4980    21.4540 o          1 M60      -0.732500
     19 OZ2         36.7200    33.4610    23.3830 o          1 M60      -0.732500
     20 N3          40.0490    32.7770    27.8070 ns         1 M60      -0.487900
     21 CA3         39.6520    32.6750    29.1840 c3         1 M60       0.038700
     22 C30         38.1520    32.3830    29.2710 c          1 M60       0.580100
     23 O3          37.3580    32.7550    28.4350 o          1 M60      -0.489100
     24 CB3         40.0140    33.9430    29.9840 c3         1 M60      -0.065700
     25 CZ1         41.5270    34.1410    30.0160 c3         1 M60      -0.089600
     26 CZ2         39.3060    35.2080    29.5040 c3         1 M60      -0.089600
     27 N4          37.8060    31.7260    30.4060 ns         1 M60      -0.392500
     28 N5          36.5160    31.3910    30.7080 n          1 M60      -0.218400
     29 O6          34.7430    31.7830    32.0250 o          1 M60      -0.593100
     30 O7          34.2600    28.8610    29.4250 o          1 M60      -0.710000
     31 O8          34.3420    31.0450    28.9570 o          1 M60      -0.710000
     32 O9          34.5320    34.7810    31.2910 oh         1 M60      -0.582000
     33 C3          36.4060    33.5090    31.9290 c3         1 M60      -0.155400
     34 C12         36.0390    30.0640    30.3520 c3         1 M60      -0.043000
     35 C1          36.1320    35.7800    32.8120 c          1 M60       0.543100
     36 C16         35.7990    32.1710    31.5610 c          1 M60       0.624100
     37 C17         34.7450    30.0070    29.5000 c          1 M60       0.729000
     38 C2          35.3660    34.5220    32.3840 c3         1 M60       0.122300
     39 C44         37.4660    39.1780    35.5750 ca         1 M60      -0.071300
     40 C34         37.6600    39.3140    36.9480 ca         1 M60      -0.106500
     41 C23         38.5630    40.2410    37.4510 ca         1 M60      -0.114000
     42 C13         39.2900    41.0470    36.5850 ca         1 M60      -0.120000
     43 C64         39.1060    40.9200    35.2140 ca         1 M60      -0.114000
     44 C54         38.2020    39.9920    34.7160 ca         1 M60      -0.106500
     45 C77         36.5320    38.1380    35.0240 c3         1 M60      -0.059100
     46 C14         37.3010    36.8610    34.6720 c3         1 M60       0.108000
     47 H21         43.6430    28.5610    25.9250 h1         1 M60       0.048200
     48 H21A        44.3370    29.2630    24.4580 h1         1 M60       0.048200
     49 H81         42.1400    26.4650    25.6340 ha         1 M60       0.119500
     50 H71         42.0670    24.2520    24.5570 ha         1 M60       0.106500
     51 H61         43.3820    23.8270    22.5030 ha         1 M60       0.101000
     52 H51         44.7620    25.6350    21.5310 ha         1 M60       0.106500
     53 H41         44.8270    27.8550    22.6070 ha         1 M60       0.119500
     54 HN1         40.1740    30.3170    24.2730 hn         1 M60       0.345500
     55 HA2         40.8810    32.8880    25.4230 h1         1 M60       0.057700
     56 HB2         38.1910    31.5620    24.8930 hc         1 M60       0.077700
     57 HB2A        38.4120    33.2140    25.4200 hc         1 M60       0.077700
     58 HG2         39.7420    33.7130    23.3600 hc         1 M60       0.012200
     59 HG2A        39.5070    32.0860    22.7900 hc         1 M60       0.012200
     60 HN3         40.2770    33.6820    27.4260 hn         1 M60       0.321500
     61 HA3         40.1950    31.8430    29.6460 h1         1 M60       0.057700
     62 HB3         39.6870    33.7480    31.0090 hc         1 M60       0.040700
     63 HZ1         41.7830    34.9640    30.6840 hc         1 M60       0.037033
     64 HZ1A        42.0380    33.2480    30.3760 hc         1 M60       0.037033
     65 HZ1B        41.9290    34.3840    29.0310 hc         1 M60       0.037033
     66 HZ2         39.5810    36.0440    30.1480 hc         1 M60       0.037033
     67 HZ2A        39.5900    35.4850    28.4860 hc         1 M60       0.037033
     68 HZ2B        38.2210    35.1220    29.5330 hc         1 M60       0.037033
     69 HN4         38.5230    31.4060    31.0430 hn         1 M60       0.294500
     70 HO9         33.8000    35.3360    31.5780 ho         1 M60       0.433000
     71 H10         37.1390    33.3430    32.7260 hc         1 M60       0.063200
     72 H10A        36.9560    33.9420    31.0950 hc         1 M60       0.063200
     73 H12         36.8400    29.5910    29.7820 h1         1 M60       0.028200
     74 H12A        35.9030    29.4620    31.2550 h1         1 M60       0.028200
     75 H94         34.8050    34.1210    33.2380 h1         1 M60       0.040700
     76 H34         37.0950    38.6890    37.6310 ha         1 M60       0.117000
     77 H23         38.6980    40.3350    38.5210 ha         1 M60       0.106500
     78 H13         39.9930    41.7720    36.9760 ha         1 M60       0.104000
     79 H64         39.6660    41.5470    34.5310 ha         1 M60       0.106500
     80 H54         38.0620    39.9000    33.6450 ha         1 M60       0.117000
     81 H77         36.0330    38.5140    34.1290 hc         1 M60       0.057700
     82 H77A        35.7550    37.9010    35.7540 hc         1 M60       0.057700
     83 H14         37.7720    36.4570    35.5690 h1         1 M60       0.049200
     84 H14A        38.1020    37.0950    33.9690 h1         1 M60       0.049200
     85 HN6         36.1110    35.1150    34.7320 hn         1 M60       0.313500
     86 O5          36.4610    36.6350    32.0040 o          1 M60      -0.587100
     87 N6          36.4670    35.8230    34.1100 ns         1 M60      -0.520900
@<TRIPOS>BOND
     1     1     2 2   
     2     1     3 1   
     3     1    11 1   
     4     3     4 1   
     5     4     5 1   
     6     4    47 1   
     7     4    48 1   
     8     5     6 ar  
     9     5    10 ar  
    10     6     7 ar  
    11     6    49 1   
    12     7     8 ar  
    13     7    50 1   
    14     8     9 ar  
    15     8    51 1   
    16     9    10 ar  
    17     9    52 1   
    18    10    53 1   
    19    11    12 1   
    20    11    54 1   
    21    12    13 1   
    22    12    15 1   
    23    12    55 1   
    24    13    14 2   
    25    13    20 1   
    26    15    16 1   
    27    15    56 1   
    28    15    57 1   
    29    16    17 1   
    30    16    58 1   
    31    16    59 1   
    32    17    18 1   
    33    17    19 1   
    34    20    21 1   
    35    20    60 1   
    36    21    22 1   
    37    21    24 1   
    38    21    61 1   
    39    22    23 2   
    40    22    27 1   
    41    24    25 1   
    42    24    26 1   
    43    24    62 1   
    44    25    63 1   
    45    25    64 1   
    46    25    65 1   
    47    26    66 1   
    48    26    67 1   
    49    26    68 1   
    50    27    28 1   
    51    27    69 1   
    52    28    34 1   
    53    28    36 1   
    54    29    36 2   
    55    30    37 1   
    56    31    37 1   
    57    32    38 1   
    58    32    70 1   
    59    33    36 1   
    60    33    38 1   
    61    33    71 1   
    62    33    72 1   
    63    34    37 1   
    64    34    73 1   
    65    34    74 1   
    66    35    38 1   
    67    35    86 2   
    68    35    87 1   
    69    38    75 1   
    70    39    40 ar  
    71    39    44 ar  
    72    39    45 1   
    73    40    41 ar  
    74    40    76 1   
    75    41    42 ar  
    76    41    77 1   
    77    42    43 ar  
    78    42    78 1   
    79    43    44 ar  
    80    43    79 1   
    81    44    80 1   
    82    45    46 1   
    83    45    81 1   
    84    45    82 1   
    85    46    83 1   
    86    46    84 1   
    87    46    87 1   
    88    85    87 1   
@<TRIPOS>SUBSTRUCTURE
     1 M60         1 TEMP              0 ****  ****    0 ROOT
