@<TRIPOS>MOLECULE
M61
   72    77     1     0     0
SMALL
No Charge or Current Charge


@<TRIPOS>ATOM
      1 C           -3.6340    -0.7360     0.8260 ca         1 M61      -0.031000
      2 N           -2.9240    -1.3180     3.0810 nb         1 M61      -0.676000
      3 O            0.2690    -2.2150    -0.1920 o          1 M61      -0.525100
      4 S            5.6780     1.6560     0.5370 s6         1 M61       1.290200
      5 C1          -3.8780    -0.9360     2.2010 ca         1 M61       0.361900
      6 C2          -1.6630    -1.5040     2.6380 ca         1 M61       0.422800
      7 C3          -1.3190    -1.3160     1.2920 ca         1 M61      -0.186600
      8 C4          -2.3190    -0.9390     0.3720 ca         1 M61      -0.041000
      9 C5          -0.7550    -1.9850     3.6710 cc         1 M61      -0.255800
     10 C6           0.5340    -1.5070     3.8240 cd         1 M61      -0.150200
     11 C7           1.3860    -0.7880     2.8650 ca         1 M61      -0.013800
     12 C8           1.1880    -0.7910     1.4660 ca         1 M61      -0.133600
     13 C9           0.0630    -1.5200     0.7970 c          1 M61       0.599300
     14 C10          2.5230    -0.1380     3.3870 ca         1 M61      -0.107000
     15 C11          3.4370     0.5210     2.5490 ca         1 M61      -0.065000
     16 C12          3.2490     0.5150     1.1550 ca         1 M61       0.234000
     17 C13          2.1230    -0.1370     0.6320 ca         1 M61      -0.084000
     18 C14         -4.6910    -0.3320    -0.1120 cc         1 M61      -0.170000
     19 C15          7.3270     2.8060    -1.2170 c3         1 M61       0.208100
     20 N16          6.3230     1.7350    -1.0440 n3         1 M61      -0.812500
     21 C17          6.8110     0.4400    -1.6050 c3         1 M61       0.246800
     22 O18          6.4050     0.6280     1.2820 o          1 M61      -0.547500
     23 O19          5.5590     3.0220     1.0500 o          1 M61      -0.547500
     24 N20          4.1280     1.1370     0.2700 nu         1 M61      -0.717100
     25 C21          5.8190    -0.7730    -1.6630 c6         1 M61       0.111300
     26 C22          6.4500    -1.9800    -2.4210 c6         1 M61       0.122600
     27 O23          5.4810    -3.0510    -2.5340 os         1 M61      -0.442000
     28 C24          4.2730    -2.6380    -3.2170 c6         1 M61       0.112600
     29 C25          3.6340    -1.4450    -2.4560 c6         1 M61       0.117600
     30 O26          4.5970    -0.3670    -2.3420 os         1 M61      -0.444000
     31 C27         -5.9830    -0.1180     0.2710 cd         1 M61      -0.149000
     32 N28         -6.6360     0.2430    -0.9150 na         1 M61       0.139800
     33 N29         -5.7940     0.2610    -2.0200 nd         1 M61      -0.519800
     34 C30         -4.6380    -0.0890    -1.4960 cc         1 M61       0.259900
     35 C31         -8.0760     0.5800    -1.0270 c6         1 M61       0.091300
     36 C32         -8.4380     1.8270    -0.1770 c6         1 M61      -0.131400
     37 C33         -9.9470     2.1420    -0.2850 c6         1 M61       0.151300
     38 N34        -10.7590     0.9620     0.1020 n7         1 M61      -0.846400
     39 C35        -10.4700    -0.2370    -0.7220 c6         1 M61       0.151300
     40 C36         -8.9750    -0.6200    -0.6270 c6         1 M61      -0.131400
     41 H1          -4.8720    -0.7980     2.6240 h4         1 M61       0.018100
     42 H4          -2.0690    -0.8000    -0.6780 ha         1 M61       0.137000
     43 H5          -1.1810    -2.5540     4.4920 ha         1 M61       0.199000
     44 H6           1.0170    -1.7840     4.7590 ha         1 M61       0.183000
     45 H10          2.7000    -0.1350     4.4600 ha         1 M61       0.124000
     46 H11          4.2900     1.0230     2.9950 ha         1 M61       0.148000
     47 H13          1.9680    -0.1320    -0.4430 ha         1 M61       0.131000
     48 H15          8.2000     2.6380    -0.5720 h1         1 M61       0.048033
     49 H15A         7.6760     2.8490    -2.2570 h1         1 M61       0.048033
     50 H15B         6.9050     3.7910    -0.9770 h1         1 M61       0.048033
     51 H17          7.1510     0.6090    -2.6360 h1         1 M61       0.065700
     52 H17A         7.6950     0.1070    -1.0430 h1         1 M61       0.065700
     53 HN20         4.0760     0.8810    -0.7080 hn         1 M61       0.329000
     54 H21          5.5720    -1.0890    -0.6400 h1         1 M61       0.056700
     55 H22          6.7740    -1.6740    -3.4270 h1         1 M61       0.055200
     56 H22A         7.3300    -2.3500    -1.8750 h1         1 M61       0.055200
     57 H24          4.5130    -2.3450    -4.2490 h1         1 M61       0.054700
     58 H24A         3.5700    -3.4820    -3.2510 h1         1 M61       0.054700
     59 H25          2.7470    -1.0830    -2.9950 h1         1 M61       0.058200
     60 H25A         3.3220    -1.7690    -1.4530 h1         1 M61       0.058200
     61 H27         -6.4840    -0.1840     1.2290 h4         1 M61       0.155000
     62 H30         -3.7750    -0.1590    -2.1450 h4         1 M61       0.043100
     63 H31         -8.2790     0.8180    -2.0820 h1         1 M61       0.091700
     64 H32         -8.1730     1.6620     0.8760 hc         1 M61       0.056950
     65 H32A        -7.8550     2.6940    -0.5160 hc         1 M61       0.056950
     66 H33        -10.1950     2.9940     0.3650 h1         1 M61       0.059950
     67 H33A       -10.1900     2.4350    -1.3190 h1         1 M61       0.059950
     68 HN34       -10.5560     0.7370     1.0840 hn         1 M61       0.408000
     69 H35        -11.0900    -1.0810    -0.3840 h1         1 M61       0.059950
     70 H35A       -10.7320    -0.0370    -1.7730 h1         1 M61       0.059950
     71 H36         -8.7710    -1.4770    -1.2830 hc         1 M61       0.056950
     72 H36A        -8.7460    -0.9450     0.3970 hc         1 M61       0.056950
@<TRIPOS>BOND
     1     1     5 ar  
     2     1     8 ar  
     3     1    18 1   
     4     2     5 ar  
     5     2     6 ar  
     6     3    13 2   
     7     4    20 1   
     8     4    22 2   
     9     4    23 2   
    10     4    24 1   
    11     5    41 1   
    12     6     7 ar  
    13     6     9 1   
    14     7     8 ar  
    15     7    13 1   
    16     8    42 1   
    17     9    10 2   
    18     9    43 1   
    19    10    11 1   
    20    10    44 1   
    21    11    12 ar  
    22    11    14 ar  
    23    12    13 1   
    24    12    17 ar  
    25    14    15 ar  
    26    14    45 1   
    27    15    16 ar  
    28    15    46 1   
    29    16    17 ar  
    30    16    24 1   
    31    17    47 1   
    32    18    31 2   
    33    18    34 1   
    34    19    20 1   
    35    19    48 1   
    36    19    49 1   
    37    19    50 1   
    38    20    21 1   
    39    21    25 1   
    40    21    51 1   
    41    21    52 1   
    42    24    53 1   
    43    25    26 1   
    44    25    30 1   
    45    25    54 1   
    46    26    27 1   
    47    26    55 1   
    48    26    56 1   
    49    27    28 1   
    50    28    29 1   
    51    28    57 1   
    52    28    58 1   
    53    29    30 1   
    54    29    59 1   
    55    29    60 1   
    56    31    32 1   
    57    31    61 1   
    58    32    33 1   
    59    32    35 1   
    60    33    34 2   
    61    34    62 1   
    62    35    36 1   
    63    35    40 1   
    64    35    63 1   
    65    36    37 1   
    66    36    64 1   
    67    36    65 1   
    68    37    38 1   
    69    37    66 1   
    70    37    67 1   
    71    38    39 1   
    72    38    68 1   
    73    39    40 1   
    74    39    69 1   
    75    39    70 1   
    76    40    71 1   
    77    40    72 1   
@<TRIPOS>SUBSTRUCTURE
     1 M61         1 TEMP              0 ****  ****    0 ROOT
