@<TRIPOS>MOLECULE
M61
   72    77     1     0     0
SMALL
bcc


@<TRIPOS>ATOM
      1 C           -3.2130    -0.6930     0.1490 ca         1 M61      -0.096300
      2 N           -2.2910    -2.2800     1.6890 nb         1 M61      -0.676000
      3 O            0.6190     0.0670    -1.0830 o          1 M61      -0.525100
      4 S            5.7440     2.2940     0.4750 s6         1 M61       1.431800
      5 C1          -3.3180    -1.7370     1.0780 ca         1 M61       0.427200
      6 C2          -1.0490    -1.8280     1.4520 ca         1 M61       0.488100
      7 C3          -0.8240    -0.8140     0.5110 ca         1 M61      -0.251900
      8 C4          -1.9290    -0.2610    -0.1360 ca         1 M61      -0.059000
      9 C5          -0.0300    -2.5180     2.2120 cc         1 M61      -0.205800
     10 C6           1.2320    -2.1480     2.4750 cd         1 M61      -0.100200
     11 C7           1.9540    -0.9560     2.0820 ca         1 M61      -0.013800
     12 C8           1.6220    -0.1040     1.0160 ca         1 M61      -0.133600
     13 C9           0.4980    -0.3050     0.0680 c          1 M61       0.599300
     14 C10          3.1110    -0.6640     2.8220 ca         1 M61      -0.125000
     15 C11          3.8760     0.4540     2.5750 ca         1 M61      -0.083000
     16 C12          3.5270     1.3030     1.5270 ca         1 M61       0.095600
     17 C13          2.4350     0.9960     0.7380 ca         1 M61      -0.102000
     18 C14         -4.3800    -0.1170    -0.4990 cc         1 M61      -0.235300
     19 C15          4.6920     2.1590    -1.9480 c3         1 M61       0.208100
     20 N16          5.4190     1.4690    -0.8930 n3         1 M61      -0.812500
     21 C17          6.1100     0.2270    -1.2080 c3         1 M61       0.246800
     22 O18          6.5860     1.4470     1.2950 o          1 M61      -0.618300
     23 O19          6.1430     3.6560     0.1730 o          1 M61      -0.618300
     24 N20          4.2900     2.4680     1.2780 nu         1 M61      -0.683500
     25 C21          5.3290    -1.0100    -0.8100 c6         1 M61       0.088100
     26 C22          6.1520    -2.2690    -1.0500 c6         1 M61       0.099400
     27 O23          5.3980    -3.4290    -0.7790 os         1 M61      -0.395600
     28 C24          4.2110    -3.4560    -1.5440 c6         1 M61       0.089400
     29 C25          3.3860    -2.2110    -1.2950 c6         1 M61       0.094400
     30 O26          4.1400    -1.0500    -1.5690 os         1 M61      -0.397600
     31 C27         -5.7050    -0.2000    -0.1080 cd         1 M61      -0.116300
     32 N28         -6.4240     0.4800    -1.0130 na         1 M61       0.118400
     33 N29         -5.6630     1.0120    -1.9670 nd         1 M61      -0.519800
     34 C30         -4.4290     0.6610    -1.6740 cc         1 M61       0.325200
     35 C31         -7.8530     0.7560    -0.9860 c6         1 M61       0.062000
     36 C32         -8.1900     1.8550     0.0180 c6         1 M61      -0.131400
     37 C33         -9.6960     2.1170     0.0130 c6         1 M61       0.151300
     38 N34        -10.5020     0.9300     0.2380 n7         1 M61      -0.791200
     39 C35        -10.1620    -0.1350    -0.6880 c6         1 M61       0.151300
     40 C36         -8.6750    -0.4960    -0.7060 c6         1 M61      -0.131400
     41 H1          -4.2900    -2.1550     1.3190 h4         1 M61       0.018100
     42 H4          -1.7740     0.5310    -0.8570 ha         1 M61       0.155000
     43 H5          -0.3820    -3.4290     2.6810 ha         1 M61       0.149000
     44 H6           1.7880    -2.8060     3.1330 ha         1 M61       0.133000
     45 H10          3.3940    -1.3280     3.6290 ha         1 M61       0.142000
     46 H11          4.7300     0.6750     3.1990 ha         1 M61       0.166000
     47 H13          2.1930     1.6350    -0.1010 ha         1 M61       0.149000
     48 H15          5.3600     2.6990    -2.6210 h1         1 M61       0.048033
     49 H15A         4.1230     1.4270    -2.5130 h1         1 M61       0.048033
     50 H15B         3.9760     2.8660    -1.5340 h1         1 M61       0.048033
     51 H17          6.2920     0.2220    -2.2860 h1         1 M61       0.065700
     52 H17A         7.0920     0.2000    -0.7370 h1         1 M61       0.065700
     53 HN20         3.7560     3.2550     0.9240 hn         1 M61       0.433800
     54 H21          5.0850    -0.9500     0.2620 h1         1 M61       0.056700
     55 H22          6.5210    -2.2790    -2.0870 h1         1 M61       0.055200
     56 H22A         7.0190    -2.2830    -0.3870 h1         1 M61       0.055200
     57 H24          4.4450    -3.5420    -2.6150 h1         1 M61       0.054700
     58 H24A         3.6500    -4.3460    -1.2510 h1         1 M61       0.054700
     59 H25          2.5130    -2.1990    -1.9480 h1         1 M61       0.058200
     60 H25A         3.0300    -2.2020    -0.2560 h1         1 M61       0.058200
     61 H27         -6.1620    -0.6760     0.7440 h4         1 M61       0.173000
     62 H30         -3.6130     0.9550    -2.3170 h4         1 M61       0.043100
     63 H31         -8.0880     1.1110    -1.9930 h1         1 M61       0.091700
     64 H32         -7.8740     1.5440     1.0200 hc         1 M61       0.056950
     65 H32A        -7.6460     2.7700    -0.2280 hc         1 M61       0.056950
     66 H33         -9.9450     2.8660     0.7660 h1         1 M61       0.059950
     67 H33A        -9.9800     2.5420    -0.9570 h1         1 M61       0.059950
     68 HN34       -10.3610     0.6050     1.1880 hn         1 M61       0.352800
     69 H35        -10.7520    -1.0200    -0.4440 h1         1 M61       0.059950
     70 H35A       -10.4650     0.1770    -1.6930 h1         1 M61       0.059950
     71 H36         -8.4800    -1.2570    -1.4650 hc         1 M61       0.056950
     72 H36A        -8.4010    -0.9210     0.2650 hc         1 M61       0.056950
@<TRIPOS>BOND
     1     1     5 ar  
     2     1     8 ar  
     3     1    18 1   
     4     2     5 ar  
     5     2     6 ar  
     6     3    13 2   
     7     4    20 1   
     8     4    22 2   
     9     4    23 2   
    10     4    24 1   
    11     5    41 1   
    12     6     7 ar  
    13     6     9 1   
    14     7     8 ar  
    15     7    13 1   
    16     8    42 1   
    17     9    10 2   
    18     9    43 1   
    19    10    11 1   
    20    10    44 1   
    21    11    12 ar  
    22    11    14 ar  
    23    12    13 1   
    24    12    17 ar  
    25    14    15 ar  
    26    14    45 1   
    27    15    16 ar  
    28    15    46 1   
    29    16    17 ar  
    30    16    24 1   
    31    17    47 1   
    32    18    31 2   
    33    18    34 1   
    34    19    20 1   
    35    19    48 1   
    36    19    49 1   
    37    19    50 1   
    38    20    21 1   
    39    21    25 1   
    40    21    51 1   
    41    21    52 1   
    42    24    53 1   
    43    25    26 1   
    44    25    30 1   
    45    25    54 1   
    46    26    27 1   
    47    26    55 1   
    48    26    56 1   
    49    27    28 1   
    50    28    29 1   
    51    28    57 1   
    52    28    58 1   
    53    29    30 1   
    54    29    59 1   
    55    29    60 1   
    56    31    32 1   
    57    31    61 1   
    58    32    33 1   
    59    32    35 1   
    60    33    34 2   
    61    34    62 1   
    62    35    36 1   
    63    35    40 1   
    64    35    63 1   
    65    36    37 1   
    66    36    64 1   
    67    36    65 1   
    68    37    38 1   
    69    37    66 1   
    70    37    67 1   
    71    38    39 1   
    72    38    68 1   
    73    39    40 1   
    74    39    69 1   
    75    39    70 1   
    76    40    71 1   
    77    40    72 1   
@<TRIPOS>SUBSTRUCTURE
     1 M61         1 TEMP              0 ****  ****    0 ROOT
