@<TRIPOS>MOLECULE
M62
   34    36     1     0     0
SMALL
bcc


@<TRIPOS>ATOM
      1 N01          3.8220     1.1500    -0.6380 nb         1 M62      -0.761000
      2 N02          5.9270     2.0420    -0.4860 nv         1 M62      -0.959500
      3 C02          5.0430     1.0680    -0.1610 ca         1 M62       0.685200
      4 C03          5.4600     0.0160     0.7150 ca         1 M62      -0.291300
      5 C04          4.5590    -0.9340     1.0710 ca         1 M62      -0.047000
      6 C05          3.2300    -0.8680     0.5810 ca         1 M62      -0.190300
      7 C06          2.2360    -1.8110     0.9080 ca         1 M62      -0.094000
      8 C07          0.9690    -1.6940     0.4030 ca         1 M62      -0.130000
      9 C08          0.6450    -0.6250    -0.4620 ca         1 M62      -0.089300
     10 C09          1.6020     0.3030    -0.7890 ca         1 M62      -0.174300
     11 C10          2.9170     0.2090    -0.2810 ca         1 M62       0.454600
     12 C11         -0.7540    -0.5110    -1.0000 c3         1 M62       0.257100
     13 N12         -1.6750    -0.2430     0.0810 nu         1 M62      -0.756600
     14 C21         -3.0300    -0.1790    -0.1150 ca         1 M62       0.205600
     15 C22         -3.6490    -0.6550    -1.2810 ca         1 M62      -0.224000
     16 C23         -5.0290    -0.6070    -1.4080 ca         1 M62      -0.061000
     17 C24         -5.8400    -0.0870    -0.4090 ca         1 M62      -0.223000
     18 C25         -5.2070     0.3860     0.7270 ca         1 M62       0.178900
     19 F27         -5.9570     0.9050     1.7150 f          1 M62      -0.147900
     20 C26         -3.8420     0.3550     0.8990 ca         1 M62      -0.254000
     21 H1           5.6900     2.6510    -1.2520 hn         1 M62       0.424800
     22 H2           6.9090     1.8750    -0.3540 hn         1 M62       0.424800
     23 H3           6.4790    -0.0100     1.0800 ha         1 M62       0.139000
     24 H4           4.8480    -1.7450     1.7280 ha         1 M62       0.136000
     25 H5           2.4890    -2.6350     1.5660 ha         1 M62       0.132000
     26 H6           0.2100    -2.4230     0.6570 ha         1 M62       0.142000
     27 H7           1.3630     1.1310    -1.4470 ha         1 M62       0.147000
     28 H8          -0.7950     0.2590    -1.7820 h1         1 M62       0.047200
     29 H9          -1.0280    -1.4560    -1.4740 h1         1 M62       0.047200
     30 H10         -1.3180     0.3730     0.7950 hn         1 M62       0.421800
     31 H11         -3.0640    -1.0630    -2.0940 ha         1 M62       0.134000
     32 H12         -5.4830    -0.9830    -2.3150 ha         1 M62       0.129000
     33 H13         -6.9160    -0.0460    -0.5100 ha         1 M62       0.149000
     34 H14         -3.4010     0.7370     1.8120 ha         1 M62       0.147000
@<TRIPOS>BOND
     1     1     3 ar  
     2     1    11 ar  
     3     2     3 1   
     4     2    21 1   
     5     2    22 1   
     6     3     4 ar  
     7     4     5 ar  
     8     4    23 1   
     9     5     6 ar  
    10     5    24 1   
    11     6     7 ar  
    12     6    11 ar  
    13     7     8 ar  
    14     7    25 1   
    15     8     9 ar  
    16     8    26 1   
    17     9    10 ar  
    18     9    12 1   
    19    10    11 ar  
    20    10    27 1   
    21    12    13 1   
    22    12    28 1   
    23    12    29 1   
    24    13    14 1   
    25    13    30 1   
    26    14    15 ar  
    27    14    20 ar  
    28    15    16 ar  
    29    15    31 1   
    30    16    17 ar  
    31    16    32 1   
    32    17    18 ar  
    33    17    33 1   
    34    18    19 1   
    35    18    20 ar  
    36    20    34 1   
@<TRIPOS>SUBSTRUCTURE
     1 M62         1 TEMP              0 ****  ****    0 ROOT
