@<TRIPOS>MOLECULE
M62
   34    36     1     0     0
SMALL
No Charge or Current Charge


@<TRIPOS>ATOM
      1 N01          3.6770     1.2140    -0.5290 nb         1 M62      -0.761000
      2 N02          5.5820     2.2870    -0.4100 nv         1 M62      -1.069900
      3 C02          4.9040     1.2040    -0.0280 ca         1 M62       0.619900
      4 C03          5.4370     0.1970     0.7790 ca         1 M62      -0.208000
      5 C04          4.6180    -0.8950     1.0990 ca         1 M62      -0.029000
      6 C05          3.3090    -0.9100     0.5840 ca         1 M62      -0.125000
      7 C06          2.4470    -1.9840     0.8760 ca         1 M62      -0.076000
      8 C07          1.1420    -1.9970     0.3610 ca         1 M62      -0.112000
      9 C08          0.6880    -0.9400    -0.4500 ca         1 M62      -0.089300
     10 C09          1.5560     0.1330    -0.7370 ca         1 M62      -0.091000
     11 C10          2.8690     0.1670    -0.2310 ca         1 M62       0.324000
     12 C11         -0.7270    -0.9530    -1.0100 c3         1 M62       0.257100
     13 N12         -1.6430    -0.2950    -0.0690 nu         1 M62      -0.950200
     14 C21         -3.0180    -0.1210    -0.2040 ca         1 M62       0.344000
     15 C22         -3.6960    -0.5000    -1.3770 ca         1 M62      -0.206000
     16 C23         -5.0850    -0.3130    -1.4860 ca         1 M62      -0.043000
     17 C24         -5.7950     0.2570    -0.4170 ca         1 M62      -0.205000
     18 C25         -5.1150     0.6330     0.7500 ca         1 M62       0.214000
     19 F27         -5.7990     1.1810     1.7770 f          1 M62      -0.183000
     20 C26         -3.7310     0.4460     0.8580 ca         1 M62      -0.236000
     21 H1           5.1550     2.7930    -1.1760 hn         1 M62       0.480000
     22 H2           6.5940     2.2250    -0.4190 hn         1 M62       0.480000
     23 H3           6.4550     0.2600     1.1490 ha         1 M62       0.121000
     24 H4           4.9890    -1.7040     1.7260 ha         1 M62       0.118000
     25 H5           2.7860    -2.8070     1.5020 ha         1 M62       0.114000
     26 H6           0.4800    -2.8300     0.5930 ha         1 M62       0.124000
     27 H7           1.2090     0.9530    -1.3590 ha         1 M62       0.129000
     28 H8          -0.7420    -0.4350    -1.9790 h1         1 M62       0.047200
     29 H9          -1.0430    -1.9920    -1.1820 h1         1 M62       0.047200
     30 H10         -1.2410     0.0080     0.8180 hn         1 M62       0.477000
     31 H11         -3.1560    -0.9400    -2.2090 ha         1 M62       0.116000
     32 H12         -5.6070    -0.6070    -2.3950 ha         1 M62       0.111000
     33 H13         -6.8700     0.4060    -0.4900 ha         1 M62       0.131000
     34 H14         -3.2190     0.7430     1.7680 ha         1 M62       0.129000
@<TRIPOS>BOND
     1     1     3 ar  
     2     1    11 ar  
     3     2     3 1   
     4     2    21 1   
     5     2    22 1   
     6     3     4 ar  
     7     4     5 ar  
     8     4    23 1   
     9     5     6 ar  
    10     5    24 1   
    11     6     7 ar  
    12     6    11 ar  
    13     7     8 ar  
    14     7    25 1   
    15     8     9 ar  
    16     8    26 1   
    17     9    10 ar  
    18     9    12 1   
    19    10    11 ar  
    20    10    27 1   
    21    12    13 1   
    22    12    28 1   
    23    12    29 1   
    24    13    14 1   
    25    13    30 1   
    26    14    15 ar  
    27    14    20 ar  
    28    15    16 ar  
    29    15    31 1   
    30    16    17 ar  
    31    16    32 1   
    32    17    18 ar  
    33    17    33 1   
    34    18    19 1   
    35    18    20 ar  
    36    20    34 1   
@<TRIPOS>SUBSTRUCTURE
     1 M62         1 TEMP              0 ****  ****    0 ROOT
