@<TRIPOS>MOLECULE
M63
  107   112     1     0     0
SMALL
abcg2


@<TRIPOS>ATOM
      1 C13         22.7180   -21.7080    24.7970 ca         1 M63      -0.141500
      2 C15         26.7710   -18.2510    27.7530 c          1 M63       0.583100
      3 C17         28.8150   -18.2560    29.1330 c3         1 M63       0.145300
      4 C20         27.7780   -16.3790    32.2720 ca         1 M63      -0.102000
      5 C21         28.7630   -16.7470    33.1860 ca         1 M63      -0.080300
      6 C22         28.7560   -16.1820    34.5840 c3         1 M63       0.196100
      7 C24         29.7540   -17.6260    32.7610 ca         1 M63      -0.102000
      8 C28         21.6920   -17.1580    26.3830 c3         1 M63      -0.012100
      9 C02         23.8370   -17.2940    27.7520 c          1 M63       0.586100
     10 C04         25.4900   -19.0400    27.4640 c3         1 M63       0.029700
     11 C05         25.7790   -20.1650    26.4600 c3         1 M63      -0.034100
     12 C06         24.5700   -21.0210    26.2100 ca         1 M63      -0.111300
     13 C07         24.1210   -21.9150    27.1790 ca         1 M63      -0.080000
     14 C08         22.9910   -22.6850    26.9720 ca         1 M63      -0.141500
     15 C09         22.2720   -22.5900    25.7790 ca         1 M63      -0.017000
     16 C11         20.0820   -23.2620    24.8180 c          1 M63       0.608100
     17 C14         23.8510   -20.9370    25.0240 ca         1 M63      -0.080000
     18 C18         28.7840   -17.7350    30.5470 ca         1 M63      -0.118300
     19 C19         27.7860   -16.8620    30.9720 ca         1 M63      -0.100500
     20 C25         29.7620   -18.1120    31.4600 ca         1 M63      -0.100500
     21 C27         22.8340   -16.3750    27.0530 c3         1 M63       0.145500
     22 C29         20.9210   -18.0490    27.3140 ca         1 M63      -0.118300
     23 C30         19.9320   -17.5450    28.1540 ca         1 M63      -0.068500
     24 C31         19.1990   -18.3620    29.0030 ca         1 M63      -0.153500
     25 C32         19.4360   -19.7370    29.0200 ca         1 M63      -0.019000
     26 C34         17.5670   -20.4790    30.4860 c          1 M63       0.608100
     27 C35         16.9570   -21.7640    30.9930 c3         1 M63      -0.163400
     28 C36         15.9990   -22.3830    29.9660 c3         1 M63       0.179800
     29 C38         16.5360   -21.8750    27.6480 c6         1 M63       0.169300
     30 C39         17.4310   -22.2920    26.4940 c6         1 M63       0.177300
     31 C41         17.6410   -24.0720    24.8170 c3         1 M63       0.197800
     32 C42         19.1310   -24.4360    24.8010 c3         1 M63      -0.202400
     33 C43         17.1910   -24.5710    27.1550 c6         1 M63       0.177300
     34 C44         16.3220   -24.1450    28.3250 c6         1 M63       0.169300
     35 C46         20.4350   -20.2510    28.1890 ca         1 M63      -0.153500
     36 C47         21.1630   -19.4200    27.3580 ca         1 M63      -0.068500
     37 C50         24.4860   -13.7530    28.1360 ca         1 M63      -0.298500
     38 C51         24.9780   -13.7390    29.4340 ca         1 M63      -0.011000
     39 C52         26.3500   -13.7330    29.6280 ca         1 M63      -0.123000
     40 C53         27.2180   -13.7520    28.5450 ca         1 M63      -0.046000
     41 C54         26.6980   -13.7630    27.2610 ca         1 M63       0.114000
     42 C56         25.3310   -13.7600    27.0350 ca         1 M63      -0.013000
     43 N03         24.4700   -18.1640    26.9530 ns         1 M63      -0.469900
     44 N10         21.1650   -23.4320    25.6240 ns         1 M63      -0.155000
     45 N23         29.2460   -17.1350    35.5650 n8         1 M63      -1.000200
     46 N33         18.7320   -20.6540    29.8060 ns         1 M63      -0.138000
     47 N37         16.6790   -22.8050    28.7530 n3         1 M63      -0.756600
     48 N40         17.0710   -23.6260    26.0660 n3         1 M63      -0.745600
     49 N48         22.3110   -15.4140    28.0080 n7         1 M63      -0.859300
     50 O01         24.0170   -17.2450    28.9580 o          1 M63      -0.608100
     51 O12         19.9090   -22.2750    24.1240 o          1 M63      -0.575100
     52 O26         27.0530   -17.2450    27.1250 o          1 M63      -0.595100
     53 O45         17.0270   -19.3990    30.6480 o          1 M63      -0.584100
     54 O57         22.0760   -13.1510    28.9830 o          1 M63      -0.534000
     55 O58         22.4670   -13.4290    26.5080 o          1 M63      -0.534000
     56 S49         22.7290   -13.8300    27.8790 sy         1 M63       1.153600
     57 CL55        27.7720   -13.7760    25.9060 cl         1 M63      -0.191000
     58 H131        22.2020   -21.6170    23.8550 ha         1 M63       0.128500
     59 H172        29.5810   -19.0290    29.0420 h1         1 M63       0.064200
     60 H171        29.0890   -17.4590    28.4410 h1         1 M63       0.064200
     61 H221        29.4170   -15.3100    34.6090 h1         1 M63       0.036200
     62 H222        27.7500   -15.7970    34.8000 h1         1 M63       0.036200
     63 H241        30.5200   -17.9440    33.4550 ha         1 M63       0.121000
     64 H281        21.0300   -16.4190    25.9280 hc         1 M63       0.061200
     65 H282        22.1040   -17.7480    25.5610 hc         1 M63       0.061200
     66 H041        25.1280   -19.4920    28.3910 h1         1 M63       0.084700
     67 H051        26.5940   -20.7720    26.8600 hc         1 M63       0.063200
     68 H052        26.1380   -19.7320    25.5220 hc         1 M63       0.063200
     69 H071        24.6590   -22.0120    28.1150 ha         1 M63       0.113000
     70 H081        22.6620   -23.3710    27.7440 ha         1 M63       0.128500
     71 H141        24.1820   -20.2590    24.2460 ha         1 M63       0.113000
     72 H191        26.9980   -16.5620    30.2910 ha         1 M63       0.118500
     73 H251        30.5420   -18.8000    31.1550 ha         1 M63       0.118500
     74 H271        23.3620   -15.8480    26.2520 h1         1 M63       0.077700
     75 H301        19.7120   -16.4850    28.1420 ha         1 M63       0.120000
     76 H311        18.4420   -17.9220    29.6310 ha         1 M63       0.126500
     77 H352        16.4020   -21.5380    31.9040 hc         1 M63       0.068200
     78 H351        17.7250   -22.4980    31.2430 hc         1 M63       0.068200
     79 H362        15.1830   -21.6810    29.7510 h1         1 M63       0.045700
     80 H361        15.5330   -23.2480    30.4420 h1         1 M63       0.045700
     81 H382        16.8070   -20.8680    27.9640 h1         1 M63       0.042950
     82 H381        15.4920   -21.8280    27.2940 h1         1 M63       0.042950
     83 H391        18.4810   -22.2140    26.8240 h1         1 M63       0.038200
     84 H392        17.2970   -21.5960    25.6640 h1         1 M63       0.038200
     85 H412        17.4480   -23.3120    24.0570 h1         1 M63       0.065200
     86 H411        17.0920   -24.9650    24.5060 h1         1 M63       0.065200
     87 H421        19.3260   -24.9610    23.8600 hc         1 M63       0.062700
     88 H422        19.3610   -25.1540    25.5900 hc         1 M63       0.062700
     89 H432        16.8710   -25.5580    26.8100 h1         1 M63       0.038200
     90 H431        18.2290   -24.6730    27.5130 h1         1 M63       0.038200
     91 H441        15.2610   -24.2160    28.0310 h1         1 M63       0.042950
     92 H442        16.4780   -24.8400    29.1520 h1         1 M63       0.042950
     93 H461        20.6350   -21.3160    28.1810 ha         1 M63       0.126500
     94 H471        21.9190   -19.8570    26.7170 ha         1 M63       0.120000
     95 H511        24.3120   -13.7260    30.2860 ha         1 M63       0.136000
     96 H521        26.7520   -13.7170    30.6320 ha         1 M63       0.121000
     97 H531        28.2880   -13.7540    28.7030 ha         1 M63       0.132000
     98 H561        24.9420   -13.7570    26.0260 ha         1 M63       0.147000
     99 H031        24.3910   -18.0620    25.9530 hn         1 M63       0.327500
    100 H101        21.1460   -24.2370    26.2310 hn         1 M63       0.150000
    101 H231        29.3300   -16.6770    36.4630 hn         1 M63       0.398000
    102 H232        28.5660   -17.8740    35.6880 hn         1 M63       0.398000
    103 H331        19.0130   -21.6160    29.6820 hn         1 M63       0.156000
    104 H481        22.3400   -15.7410    28.9710 hn         1 M63       0.510000
    105 N16         27.5430   -18.7920    28.7090 ns         1 M63      -0.498900
    106 H201        26.9840   -15.7080    32.5810 ha         1 M63       0.121000
    107 H161        27.1980   -19.6000    29.2050 hn         1 M63       0.315500
@<TRIPOS>BOND
     1     1    15 ar  
     2     1    17 ar  
     3     1    58 1   
     4     2    10 1   
     5     2    52 2   
     6     2   105 1   
     7     3    18 1   
     8     3    59 1   
     9     3    60 1   
    10     3   105 1   
    11     4     5 ar  
    12     4    19 ar  
    13     4   106 1   
    14     5     6 1   
    15     5     7 ar  
    16     6    45 1   
    17     6    61 1   
    18     6    62 1   
    19     7    20 ar  
    20     7    63 1   
    21     8    21 1   
    22     8    22 1   
    23     8    64 1   
    24     8    65 1   
    25     9    21 1   
    26     9    43 1   
    27     9    50 2   
    28    10    11 1   
    29    10    43 1   
    30    10    66 1   
    31    11    12 1   
    32    11    67 1   
    33    11    68 1   
    34    12    13 ar  
    35    12    17 ar  
    36    13    14 ar  
    37    13    69 1   
    38    14    15 ar  
    39    14    70 1   
    40    15    44 1   
    41    16    32 1   
    42    16    44 1   
    43    16    51 2   
    44    17    71 1   
    45    18    19 ar  
    46    18    20 ar  
    47    19    72 1   
    48    20    73 1   
    49    21    49 1   
    50    21    74 1   
    51    22    23 ar  
    52    22    36 ar  
    53    23    24 ar  
    54    23    75 1   
    55    24    25 ar  
    56    24    76 1   
    57    25    35 ar  
    58    25    46 1   
    59    26    27 1   
    60    26    46 1   
    61    26    53 2   
    62    27    28 1   
    63    27    77 1   
    64    27    78 1   
    65    28    47 1   
    66    28    79 1   
    67    28    80 1   
    68    29    30 1   
    69    29    47 1   
    70    29    81 1   
    71    29    82 1   
    72    30    48 1   
    73    30    83 1   
    74    30    84 1   
    75    31    32 1   
    76    31    48 1   
    77    31    85 1   
    78    31    86 1   
    79    32    87 1   
    80    32    88 1   
    81    33    34 1   
    82    33    48 1   
    83    33    89 1   
    84    33    90 1   
    85    34    47 1   
    86    34    91 1   
    87    34    92 1   
    88    35    36 ar  
    89    35    93 1   
    90    36    94 1   
    91    37    38 ar  
    92    37    42 ar  
    93    37    56 1   
    94    38    39 ar  
    95    38    95 1   
    96    39    40 ar  
    97    39    96 1   
    98    40    41 ar  
    99    40    97 1   
   100    41    42 ar  
   101    41    57 1   
   102    42    98 1   
   103    43    99 1   
   104    44   100 1   
   105    45   101 1   
   106    45   102 1   
   107    46   103 1   
   108    49    56 1   
   109    49   104 1   
   110    54    56 2   
   111    55    56 2   
   112   105   107 1   
@<TRIPOS>SUBSTRUCTURE
     1 M63         1 TEMP              0 ****  ****    0 ROOT
