@<TRIPOS>MOLECULE
M63
  107   112     1     0     0
SMALL
No Charge or Current Charge


@<TRIPOS>ATOM
      1 C13         22.8860   -21.7450    25.9680 ca         1 M63      -0.141500
      2 C15         26.9350   -17.3200    27.8170 c          1 M63       0.583100
      3 C17         29.1320   -16.9880    28.9750 c3         1 M63       0.145300
      4 C20         30.1410   -16.7030    32.6640 ca         1 M63      -0.102000
      5 C21         30.8620   -17.8970    32.8600 ca         1 M63      -0.080300
      6 C22         31.4760   -18.2130    34.2190 c3         1 M63       0.196100
      7 C24         31.0160   -18.7930    31.7840 ca         1 M63      -0.102000
      8 C28         21.5430   -16.8690    25.9250 c3         1 M63      -0.012100
      9 C02         23.2710   -17.0080    27.8010 c          1 M63       0.586100
     10 C04         25.5770   -18.0690    27.8870 c3         1 M63       0.029700
     11 C05         25.7060   -19.4350    27.1680 c3         1 M63      -0.034100
     12 C06         24.4640   -20.3260    27.1800 ca         1 M63      -0.111300
     13 C07         23.9080   -20.7730    28.3940 ca         1 M63      -0.080000
     14 C08         22.8630   -21.7150    28.3930 ca         1 M63      -0.141500
     15 C09         22.3660   -22.2380    27.1830 ca         1 M63      -0.017000
     16 C11         21.0590   -24.2670    26.3240 c          1 M63       0.608100
     17 C14         23.9270   -20.8000    25.9680 ca         1 M63      -0.080000
     18 C18         29.7400   -17.3030    30.3320 ca         1 M63      -0.118300
     19 C19         29.5830   -16.4080    31.4070 ca         1 M63      -0.100500
     20 C25         30.4570   -18.4990    30.5280 ca         1 M63      -0.100500
     21 C27         22.3650   -16.0480    26.9540 c3         1 M63       0.145500
     22 C29         20.3820   -17.6430    26.5500 ca         1 M63      -0.118300
     23 C30         19.0850   -17.0960    26.5510 ca         1 M63      -0.068500
     24 C31         18.0230   -17.7830    27.1610 ca         1 M63      -0.153500
     25 C32         18.2450   -19.0300    27.7810 ca         1 M63      -0.019000
     26 C34         15.8390   -19.7460    28.2630 c          1 M63       0.608100
     27 C35         15.1010   -20.7460    29.1440 c3         1 M63      -0.163400
     28 C36         14.7760   -22.0470    28.3890 c3         1 M63       0.179800
     29 C38         16.5160   -22.4970    26.6320 c6         1 M63       0.169300
     30 C39         17.8450   -23.2570    26.3220 c6         1 M63       0.177300
     31 C41         18.8490   -25.5500    26.0500 c3         1 M63       0.197800
     32 C42         20.1500   -25.3720    26.8670 c3         1 M63      -0.202400
     33 C43         17.1240   -25.0780    27.8160 c6         1 M63       0.177300
     34 C44         15.8090   -24.2950    28.1290 c6         1 M63       0.169300
     35 C46         19.5410   -19.5760    27.7760 ca         1 M63      -0.153500
     36 C47         20.6010   -18.8930    27.1570 ca         1 M63      -0.068500
     37 C50         23.7150   -14.0240    28.6630 ca         1 M63      -0.298500
     38 C51         24.5720   -14.6500    29.5960 ca         1 M63      -0.011000
     39 C52         25.9660   -14.5430    29.4510 ca         1 M63      -0.123000
     40 C53         26.5110   -13.8160    28.3790 ca         1 M63      -0.046000
     41 C54         25.6620   -13.1940    27.4490 ca         1 M63       0.114000
     42 C56         24.2670   -13.2880    27.5930 ca         1 M63      -0.013000
     43 N03         24.5250   -17.2360    27.2670 ns         1 M63      -0.469900
     44 N10         21.4090   -23.2890    27.2490 ns         1 M63      -0.155000
     45 N23         30.5880   -19.0670    35.0310 n8         1 M63      -1.000200
     46 N33         17.2170   -19.7620    28.4230 ns         1 M63      -0.138000
     47 N37         15.9870   -22.8140    28.0040 n3         1 M63      -0.756600
     48 N40         17.6830   -24.7340    26.4700 n3         1 M63      -0.745600
     49 N48         21.4160   -15.1920    27.7390 n7         1 M63      -0.859300
     50 O01         22.9280   -17.4860    28.8760 o          1 M63      -0.608100
     51 O12         21.5000   -24.3190    25.1820 o          1 M63      -0.575100
     52 O26         27.2230   -16.5440    26.9140 o          1 M63      -0.595100
     53 O45         15.2400   -19.0110    27.4840 o          1 M63      -0.584100
     54 O57         21.6190   -14.7140    30.1670 o          1 M63      -0.534000
     55 O58         21.3420   -12.8110    28.4720 o          1 M63      -0.534000
     56 S49         21.9290   -14.0890    28.8820 sy         1 M63       1.153600
     57 Cl55        26.3460   -12.2850    26.1070 cl         1 M63      -0.191000
     58 H131        22.5130   -22.1010    25.0120 ha         1 M63       0.128500
     59 H172        29.7810   -17.3720    28.1770 h1         1 M63       0.064200
     60 H171        29.0470   -15.9000    28.8490 h1         1 M63       0.064200
     61 H221        32.4360   -18.7290    34.0810 h1         1 M63       0.036200
     62 H222        31.6670   -17.2790    34.7660 h1         1 M63       0.036200
     63 H241        31.5680   -19.7200    31.9240 ha         1 M63       0.121000
     64 H281        21.1590   -16.1800    25.1630 hc         1 M63       0.061200
     65 H282        22.2120   -17.5560    25.3910 hc         1 M63       0.061200
     66 H041        25.3420   -18.2300    28.9460 h1         1 M63       0.084700
     67 H051        26.5330   -19.9900    27.6290 hc         1 M63       0.063200
     68 H052        26.0230   -19.2500    26.1340 hc         1 M63       0.063200
     69 H071        24.3110   -20.4220    29.3410 ha         1 M63       0.113000
     70 H081        22.4730   -22.0770    29.3420 ha         1 M63       0.128500
     71 H141        24.3410   -20.4670    25.0190 ha         1 M63       0.113000
     72 H191        29.0280   -15.4820    31.2710 ha         1 M63       0.118500
     73 H251        30.5820   -19.2010    29.7070 ha         1 M63       0.118500
     74 H271        23.0450   -15.4080    26.3760 h1         1 M63       0.077700
     75 H301        18.9010   -16.1270    26.0910 ha         1 M63       0.120000
     76 H311        17.0380   -17.3240    27.1630 ha         1 M63       0.126500
     77 H352        14.1570   -20.3000    29.4780 hc         1 M63       0.068200
     78 H351        15.7200   -21.0160    30.0080 hc         1 M63       0.068200
     79 H362        14.1590   -21.8230    27.5070 h1         1 M63       0.045700
     80 H361        14.1520   -22.6530    29.0610 h1         1 M63       0.045700
     81 H382        16.6990   -21.4250    26.5020 h1         1 M63       0.042950
     82 H381        15.7720   -22.7790    25.8720 h1         1 M63       0.042950
     83 H391        18.6210   -22.8860    27.0060 h1         1 M63       0.038200
     84 H392        18.1640   -23.0080    25.3000 h1         1 M63       0.038200
     85 H412        19.0670   -25.3730    24.9870 h1         1 M63       0.065200
     86 H411        18.5650   -26.6100    26.1180 h1         1 M63       0.065200
     87 H421        20.7120   -26.3090    26.7790 hc         1 M63       0.062700
     88 H422        19.9320   -25.2130    27.9280 hc         1 M63       0.062700
     89 H432        16.9150   -26.1550    27.8790 h1         1 M63       0.038200
     90 H431        17.8520   -24.8440    28.6060 h1         1 M63       0.038200
     91 H441        15.0220   -24.6410    27.4420 h1         1 M63       0.042950
     92 H442        15.4850   -24.5560    29.1470 h1         1 M63       0.042950
     93 H461        19.7310   -20.5360    28.2490 ha         1 M63       0.126500
     94 H471        21.5950   -19.3310    27.1640 ha         1 M63       0.120000
     95 H511        24.1660   -15.2120    30.4360 ha         1 M63       0.136000
     96 H521        26.6230   -15.0240    30.1720 ha         1 M63       0.121000
     97 H531        27.5890   -13.7370    28.2640 ha         1 M63       0.132000
     98 H561        23.6210   -12.7870    26.8740 ha         1 M63       0.147000
     99 H031        24.7510   -16.7610    26.3990 hn         1 M63       0.327500
    100 H101        20.9800   -23.4020    28.1590 hn         1 M63       0.150000
    101 H231        30.9970   -19.1750    35.9670 hn         1 M63       0.398000
    102 H232        29.7140   -18.5580    35.2030 hn         1 M63       0.398000
    103 H331        17.5500   -20.4620    29.0730 hn         1 M63       0.156000
    104 H481        20.8580   -15.8020    28.3370 hn         1 M63       0.510000
    105 N16         27.8100   -17.5910    28.8440 ns         1 M63      -0.498900
    106 H201        30.0140   -16.0010    33.4850 ha         1 M63       0.121000
    107 H161        27.5080   -18.2440    29.5570 hn         1 M63       0.315500
@<TRIPOS>BOND
     1     1    15 ar  
     2     1    17 ar  
     3     1    58 1   
     4     2    10 1   
     5     2    52 2   
     6     2   105 1   
     7     3    18 1   
     8     3    59 1   
     9     3    60 1   
    10     3   105 1   
    11     4     5 ar  
    12     4    19 ar  
    13     4   106 1   
    14     5     6 1   
    15     5     7 ar  
    16     6    45 1   
    17     6    61 1   
    18     6    62 1   
    19     7    20 ar  
    20     7    63 1   
    21     8    21 1   
    22     8    22 1   
    23     8    64 1   
    24     8    65 1   
    25     9    21 1   
    26     9    43 1   
    27     9    50 2   
    28    10    11 1   
    29    10    43 1   
    30    10    66 1   
    31    11    12 1   
    32    11    67 1   
    33    11    68 1   
    34    12    13 ar  
    35    12    17 ar  
    36    13    14 ar  
    37    13    69 1   
    38    14    15 ar  
    39    14    70 1   
    40    15    44 1   
    41    16    32 1   
    42    16    44 1   
    43    16    51 2   
    44    17    71 1   
    45    18    19 ar  
    46    18    20 ar  
    47    19    72 1   
    48    20    73 1   
    49    21    49 1   
    50    21    74 1   
    51    22    23 ar  
    52    22    36 ar  
    53    23    24 ar  
    54    23    75 1   
    55    24    25 ar  
    56    24    76 1   
    57    25    35 ar  
    58    25    46 1   
    59    26    27 1   
    60    26    46 1   
    61    26    53 2   
    62    27    28 1   
    63    27    77 1   
    64    27    78 1   
    65    28    47 1   
    66    28    79 1   
    67    28    80 1   
    68    29    30 1   
    69    29    47 1   
    70    29    81 1   
    71    29    82 1   
    72    30    48 1   
    73    30    83 1   
    74    30    84 1   
    75    31    32 1   
    76    31    48 1   
    77    31    85 1   
    78    31    86 1   
    79    32    87 1   
    80    32    88 1   
    81    33    34 1   
    82    33    48 1   
    83    33    89 1   
    84    33    90 1   
    85    34    47 1   
    86    34    91 1   
    87    34    92 1   
    88    35    36 ar  
    89    35    93 1   
    90    36    94 1   
    91    37    38 ar  
    92    37    42 ar  
    93    37    56 1   
    94    38    39 ar  
    95    38    95 1   
    96    39    40 ar  
    97    39    96 1   
    98    40    41 ar  
    99    40    97 1   
   100    41    42 ar  
   101    41    57 1   
   102    42    98 1   
   103    43    99 1   
   104    44   100 1   
   105    45   101 1   
   106    45   102 1   
   107    46   103 1   
   108    49    56 1   
   109    49   104 1   
   110    54    56 2   
   111    55    56 2   
   112   105   107 1   
@<TRIPOS>SUBSTRUCTURE
     1 M63         1 TEMP              0 ****  ****    0 ROOT
