@<TRIPOS>MOLECULE
M64
   32    32     1     0     0
SMALL
No Charge or Current Charge


@<TRIPOS>ATOM
      1 C13          3.8550    -1.1820     0.6400 c6         1 M64      -0.070400
      2 C15          2.6770     0.7050    -0.6200 c6         1 M64       0.109700
      3 C04         -3.6730    -0.3010    -0.5150 c          1 M64       0.718000
      4 C06         -2.4740     0.4980     0.1510 c3         1 M64       0.032500
      5 C07         -1.1310    -0.2610    -0.0300 c3         1 M64      -0.177400
      6 C08          0.1660     0.5760     0.0340 c          1 M64       0.588100
      7 C11          1.5760    -1.4960    -0.4610 c6         1 M64       0.091000
      8 C12          2.5010    -1.9320     0.7000 c6         1 M64      -0.108400
      9 C14          3.6430     0.3500     0.5420 c6         1 M64      -0.102400
     10 C16          2.6250     2.2400    -0.8670 c3         1 M64      -0.076100
     11 N10          1.3740    -0.0180    -0.4320 n          1 M64      -0.401800
     12 N17         -2.6480     0.8790     1.5980 n8         1 M64      -0.989200
     13 O09          0.1330     1.7250     0.4560 o          1 M64      -0.610100
     14 H1           4.4580    -1.4230     1.5260 hc         1 M64       0.029200
     15 H2           4.4260    -1.5280    -0.2320 hc         1 M64       0.029200
     16 H3           3.1220     0.2950    -1.5390 h1         1 M64       0.029700
     17 H9          -2.3980     1.4320    -0.4240 h1         1 M64       0.063700
     18 H10         -1.0440    -1.0960     0.6740 hc         1 M64       0.062200
     19 H11         -1.1200    -0.7890    -0.9910 hc         1 M64       0.062200
     20 H12          2.0390    -1.7740    -1.4190 h1         1 M64       0.054200
     21 H13          0.6330    -2.0510    -0.3980 h1         1 M64       0.054200
     22 H14          2.6710    -3.0160     0.6570 hc         1 M64       0.047700
     23 H15          2.0060    -1.7280     1.6590 hc         1 M64       0.047700
     24 H16          3.2370     0.7310     1.4890 hc         1 M64       0.045200
     25 H17          4.6130     0.8450     0.3930 hc         1 M64       0.045200
     26 H18          2.3880     2.7980     0.0450 hc         1 M64       0.040367
     27 H19          3.5970     2.6040    -1.2200 hc         1 M64       0.040367
     28 H20          1.8840     2.4930    -1.6340 hc         1 M64       0.040367
     29 H30         -2.7230     0.0240     2.1610 hn         1 M64       0.382000
     30 H4          -1.7800     1.3220     1.9230 hn         1 M64       0.382000
     31 O05         -3.9620    -1.4060    -0.0690 o          1 M64      -0.730500
     32 OXT         -4.2960     0.2350    -1.4230 o          1 M64      -0.730500
@<TRIPOS>BOND
     1     1     8 1   
     2     1     9 1   
     3     1    14 1   
     4     1    15 1   
     5     2     9 1   
     6     2    10 1   
     7     2    11 1   
     8     2    16 1   
     9     3     4 1   
    10     3    31 1   
    11     3    32 1   
    12     4     5 1   
    13     4    12 1   
    14     4    17 1   
    15     5     6 1   
    16     5    18 1   
    17     5    19 1   
    18     6    11 1   
    19     6    13 2   
    20     7     8 1   
    21     7    11 1   
    22     7    20 1   
    23     7    21 1   
    24     8    22 1   
    25     8    23 1   
    26     9    24 1   
    27     9    25 1   
    28    10    26 1   
    29    10    27 1   
    30    10    28 1   
    31    12    29 1   
    32    12    30 1   
@<TRIPOS>SUBSTRUCTURE
     1 M64         1 TEMP              0 ****  ****    0 ROOT
