@<TRIPOS>MOLECULE
M64
   32    32     1     0     0
SMALL
bcc


@<TRIPOS>ATOM
      1 C13          3.4300    -1.1470     0.8410 c6         1 M64      -0.070400
      2 C15          2.6960     0.7670    -0.6280 c6         1 M64       0.109700
      3 C04         -3.4430    -0.5330     0.0310 c          1 M64       0.928600
      4 C06         -2.2480     0.4130     0.3090 c3         1 M64       0.032500
      5 C07         -0.9890    -0.2590    -0.2530 c3         1 M64      -0.177400
      6 C08          0.2360     0.6430    -0.2820 c          1 M64       0.655100
      7 C11          1.5680    -1.3460    -0.8250 c6         1 M64       0.091000
      8 C12          2.1250    -1.8620     0.4960 c6         1 M64      -0.108400
      9 C14          3.3120     0.3720     0.7150 c6         1 M64      -0.102400
     10 C16          2.7480     2.2630    -0.8970 c3         1 M64      -0.076100
     11 N10          1.3890     0.1010    -0.7530 n          1 M64      -0.468800
     12 N17         -2.1750     0.7580     1.7160 n8         1 M64      -0.878800
     13 O09          0.1540     1.8120     0.0710 o          1 M64      -0.610100
     14 H1           3.7540    -1.4170     1.8480 hc         1 M64       0.029200
     15 H2           4.2130    -1.4980     0.1610 hc         1 M64       0.029200
     16 H3           3.3030     0.3040    -1.4150 h1         1 M64       0.029700
     17 H9          -2.4280     1.3290    -0.2620 h1         1 M64       0.063700
     18 H10         -0.7790    -1.1520     0.3470 hc         1 M64       0.062200
     19 H11         -1.1820    -0.6160    -1.2690 hc         1 M64       0.062200
     20 H12          2.2740    -1.5550    -1.6330 h1         1 M64       0.054200
     21 H13          0.6410    -1.8430    -1.0990 h1         1 M64       0.054200
     22 H14          2.2880    -2.9400     0.4340 hc         1 M64       0.047700
     23 H15          1.3820    -1.6990     1.2840 hc         1 M64       0.047700
     24 H16          2.6980     0.7830     1.5230 hc         1 M64       0.045200
     25 H17          4.3020     0.8270     0.8120 hc         1 M64       0.045200
     26 H18          2.3810     2.8610    -0.0680 hc         1 M64       0.040367
     27 H19          3.7930     2.5300    -1.0680 hc         1 M64       0.040367
     28 H20          2.1920     2.5350    -1.7930 hc         1 M64       0.040367
     29 H30         -2.2550    -0.0870     2.2670 hn         1 M64       0.326800
     30 H4          -1.2790     1.1760     1.9260 hn         1 M64       0.326800
     31 O05         -3.9520    -1.1210     1.0040 o          1 M64      -0.835800
     32 OXT         -3.7760    -0.6490    -1.1660 o          1 M64      -0.835800
@<TRIPOS>BOND
     1     1     8 1   
     2     1     9 1   
     3     1    14 1   
     4     1    15 1   
     5     2     9 1   
     6     2    10 1   
     7     2    11 1   
     8     2    16 1   
     9     3     4 1   
    10     3    31 1   
    11     3    32 1   
    12     4     5 1   
    13     4    12 1   
    14     4    17 1   
    15     5     6 1   
    16     5    18 1   
    17     5    19 1   
    18     6    11 1   
    19     6    13 2   
    20     7     8 1   
    21     7    11 1   
    22     7    20 1   
    23     7    21 1   
    24     8    22 1   
    25     8    23 1   
    26     9    24 1   
    27     9    25 1   
    28    10    26 1   
    29    10    27 1   
    30    10    28 1   
    31    12    29 1   
    32    12    30 1   
@<TRIPOS>SUBSTRUCTURE
     1 M64         1 TEMP              0 ****  ****    0 ROOT
