@<TRIPOS>MOLECULE
M65
   36    36     1     0     0
SMALL
No Charge or Current Charge


@<TRIPOS>ATOM
      1 C11          9.8000     8.4010    17.0090 c3         1 M65       0.164600
      2 C10         11.1730    10.3990    17.1330 c          1 M65       0.592100
      3 C9          12.6270    10.8800    17.1340 c3         1 M65      -0.136400
      4 C8          13.1830    11.0780    15.7010 c3         1 M65      -0.064400
      5 C7          12.4770    12.1930    14.8950 c3         1 M65      -0.077400
      6 C2          16.5390    14.2120    11.0780 cc         1 M65       0.227900
      7 C6          13.0930    12.4040    13.4950 c3         1 M65      -0.076400
      8 C5          12.3870    13.5180    12.6860 c3         1 M65      -0.093400
      9 N1          16.1450    15.4790    11.4040 nc         1 M65      -0.673000
     10 C3          15.4660    13.3690    10.9710 cd         1 M65      -0.236000
     11 N2          14.3610    14.1550    11.2460 na         1 M65      -0.166500
     12 C4          12.9560    13.7150    11.2630 c3         1 M65       0.073600
     13 C1          14.8210    15.4380    11.5050 cd         1 M65       0.384400
     14 C12          9.2940     8.5180    15.5560 c3         1 M65      -0.122100
     15 O1          10.2100    11.1540    17.1540 o          1 M65      -0.491000
     16 O2          11.0940     9.0290    17.1020 os         1 M65      -0.449100
     17 H1           9.0810     8.8530    17.7050 h1         1 M65       0.058700
     18 H2           9.8850     7.3360    17.2630 h1         1 M65       0.058700
     19 H3          13.2490    10.1090    17.6030 hc         1 M65       0.073200
     20 H4          12.7030    11.8230    17.6870 hc         1 M65       0.073200
     21 H5          13.1090    10.1310    15.1520 hc         1 M65       0.049200
     22 H6          14.2520    11.3150    15.7720 hc         1 M65       0.049200
     23 H7          12.5290    13.1340    15.4570 hc         1 M65       0.043200
     24 H8          11.4150    11.9460    14.7790 hc         1 M65       0.043200
     25 H10         13.0420    11.4640    12.9320 hc         1 M65       0.045700
     26 H11         14.1560    12.6520    13.6070 hc         1 M65       0.045700
     27 H12         12.4530    14.4660    13.2350 hc         1 M65       0.051200
     28 H13         11.3210    13.2760    12.6010 hc         1 M65       0.051200
     29 H14         15.4160    12.3130    10.7320 h4         1 M65       0.154000
     30 H15         12.3530    14.4670    10.7370 h1         1 M65       0.059700
     31 H16         12.8730    12.7740    10.7040 h1         1 M65       0.059700
     32 H17         14.1560    16.2570    11.7520 h5         1 M65       0.051100
     33 H18          8.3500     7.9730    15.4430 hc         1 M65       0.047033
     34 H19          9.1160     9.5630    15.2770 hc         1 M65       0.047033
     35 H20         10.0220     8.0880    14.8590 hc         1 M65       0.047033
     36 H9          17.5870    13.9820    10.9380 h4         1 M65       0.037100
@<TRIPOS>BOND
     1     1    14 1   
     2     1    16 1   
     3     1    17 1   
     4     1    18 1   
     5     2     3 1   
     6     2    15 2   
     7     2    16 1   
     8     3     4 1   
     9     3    19 1   
    10     3    20 1   
    11     4     5 1   
    12     4    21 1   
    13     4    22 1   
    14     5     7 1   
    15     5    23 1   
    16     5    24 1   
    17     6     9 1   
    18     6    10 2   
    19     6    36 1   
    20     7     8 1   
    21     7    25 1   
    22     7    26 1   
    23     8    12 1   
    24     8    27 1   
    25     8    28 1   
    26     9    13 2   
    27    10    11 1   
    28    10    29 1   
    29    11    12 1   
    30    11    13 1   
    31    12    30 1   
    32    12    31 1   
    33    13    32 1   
    34    14    33 1   
    35    14    34 1   
    36    14    35 1   
@<TRIPOS>SUBSTRUCTURE
     1 M65         1 TEMP              0 ****  ****    0 ROOT
