@<TRIPOS>MOLECULE
M65
   36    36     1     0     0
SMALL
abcg2


@<TRIPOS>ATOM
      1 C11          9.9530     8.6770    16.3900 c3         1 M65       0.164600
      2 C10         11.4050    10.3300    17.2910 c          1 M65       0.592100
      3 C9          12.8000    10.8950    17.2260 c3         1 M65      -0.136400
      4 C8          13.3730    11.0590    15.8200 c3         1 M65      -0.064400
      5 C7          12.5410    11.9580    14.9150 c3         1 M65      -0.077400
      6 C2          16.3630    14.3760    11.3210 cc         1 M65       0.227900
      7 C6          13.2090    12.2040    13.5670 c3         1 M65      -0.076400
      8 C5          12.3570    13.0580    12.6400 c3         1 M65      -0.093400
      9 N1          15.7010    15.5680    11.4030 nc         1 M65      -0.673000
     10 C3          15.4680    13.3470    11.2360 cd         1 M65      -0.236000
     11 N2          14.2330    13.9290    11.2640 na         1 M65      -0.166500
     12 C4          12.9490    13.2510    11.2500 c3         1 M65       0.073600
     13 C1          14.4290    15.2590    11.3690 cd         1 M65       0.384400
     14 C12          9.0030     9.4560    15.5060 c3         1 M65      -0.122100
     15 O1          10.5390    10.7420    18.0240 o          1 M65      -0.491000
     16 O2          11.2450     9.2980    16.4730 os         1 M65      -0.449100
     17 H1           9.5370     8.5350    17.3880 h1         1 M65       0.058700
     18 H2          10.1510     7.6940    15.9660 h1         1 M65       0.058700
     19 H3          13.4480    10.2310    17.8070 hc         1 M65       0.073200
     20 H4          12.7910    11.8530    17.7480 hc         1 M65       0.073200
     21 H5          13.5040    10.0820    15.3500 hc         1 M65       0.049200
     22 H6          14.3760    11.4820    15.9230 hc         1 M65       0.049200
     23 H7          12.3610    12.9170    15.4130 hc         1 M65       0.043200
     24 H8          11.5550    11.5110    14.7470 hc         1 M65       0.043200
     25 H10         13.4210    11.2430    13.0850 hc         1 M65       0.045700
     26 H11         14.1790    12.6820    13.7340 hc         1 M65       0.045700
     27 H12         12.1700    14.0340    13.0970 hc         1 M65       0.051200
     28 H13         11.3770    12.5900    12.5070 hc         1 M65       0.051200
     29 H14         15.5980    12.2800    11.1570 h4         1 M65       0.154000
     30 H15         12.2670    13.8320    10.6290 h1         1 M65       0.059700
     31 H16         13.0900    12.2890    10.7580 h1         1 M65       0.059700
     32 H17         13.6060    15.9580    11.4090 h5         1 M65       0.051100
     33 H18          8.0850     8.8830    15.3740 hc         1 M65       0.047033
     34 H19          8.7380    10.4180    15.9410 hc         1 M65       0.047033
     35 H20          9.4330     9.6270    14.5180 hc         1 M65       0.047033
     36 H9          17.4410    14.3170    11.3230 h4         1 M65       0.037100
@<TRIPOS>BOND
     1     1    14 1   
     2     1    16 1   
     3     1    17 1   
     4     1    18 1   
     5     2     3 1   
     6     2    15 2   
     7     2    16 1   
     8     3     4 1   
     9     3    19 1   
    10     3    20 1   
    11     4     5 1   
    12     4    21 1   
    13     4    22 1   
    14     5     7 1   
    15     5    23 1   
    16     5    24 1   
    17     6     9 1   
    18     6    10 2   
    19     6    36 1   
    20     7     8 1   
    21     7    25 1   
    22     7    26 1   
    23     8    12 1   
    24     8    27 1   
    25     8    28 1   
    26     9    13 2   
    27    10    11 1   
    28    10    29 1   
    29    11    12 1   
    30    11    13 1   
    31    12    30 1   
    32    12    31 1   
    33    13    32 1   
    34    14    33 1   
    35    14    34 1   
    36    14    35 1   
@<TRIPOS>SUBSTRUCTURE
     1 M65         1 TEMP              0 ****  ****    0 ROOT
