@<TRIPOS>MOLECULE
M66
  110   114     1     0     0
SMALL
abcg2


@<TRIPOS>ATOM
      1 C1          -3.0220     0.8370    -0.6810 c          1 M66       0.648100
      2 O2          -2.8040     1.6770     0.1840 o          1 M66      -0.640100
      3 N3          -3.8130     1.0520    -1.7690 ns         1 M66      -0.495900
      4 N5          -6.0020     1.0430     0.0100 n          1 M66      -0.417800
      5 C6          -4.7570     2.1490    -1.8260 c3         1 M66       0.098700
      6 C7          -4.8180     2.7620    -3.2440 c3         1 M66      -0.045000
      7 C8          -3.4450     3.3450    -3.5840 c3         1 M66      -0.086100
      8 C9          -5.1930     1.7250    -4.3070 c3         1 M66      -0.086100
      9 C10         -5.8470     3.8960    -3.2630 c3         1 M66      -0.086100
     10 C11         -5.8660     1.8070     1.1140 c          1 M66       0.577000
     11 C12         -5.6460     1.1130     2.4390 c6         1 M66      -0.159400
     12 C13         -6.1140    -0.3300     2.4980 c6         1 M66      -0.072400
     13 C14         -5.6010    -1.0570     1.2700 c6         1 M66      -0.094400
     14 C15         -6.1490    -0.4100     0.0160 c6         1 M66       0.118000
     15 C16         -6.1250     1.7040    -1.2780 c3         1 M66       0.077000
     16 N17         -2.4660    -0.4050    -0.6110 ns         1 M66      -0.516900
     17 C18         -1.5580    -0.6980     0.4610 c3         1 M66       0.066700
     18 C19         -1.1020    -2.1590     0.4450 c5         1 M66      -0.080700
     19 C20         -2.2530    -3.1770     0.5620 c5         1 M66      -0.030100
     20 C21         -0.2840    -2.6070    -0.7830 c5         1 M66      -0.030100
     21 C22         -1.6790    -4.4070    -0.0820 ca         1 M66      -0.090300
     22 C23         -0.5610    -4.0810    -0.8460 ca         1 M66      -0.090300
     23 C24          0.1250    -5.0630    -1.5430 ca         1 M66      -0.095000
     24 C25         -0.3180    -6.3800    -1.4700 ca         1 M66      -0.111000
     25 C26         -1.4360    -6.7050    -0.7090 ca         1 M66      -0.111000
     26 C27         -2.1250    -5.7180    -0.0110 ca         1 M66      -0.095000
     27 C28         -0.3260     0.2000     0.3850 c          1 M66       0.603100
     28 O29          0.1690     0.4930    -0.6950 o          1 M66      -0.613100
     29 N30          0.2260     0.5910     1.5450 n          1 M66      -0.389800
     30 C31         -0.2540     0.2920     2.8900 c5         1 M66       0.137000
     31 C32          1.5160     1.2480     1.5240 c5         1 M66       0.061700
     32 C33          1.7390     1.6890     2.9550 cx         1 M66      -0.130700
     33 C34          0.6490     1.0890     3.7950 cx         1 M66      -0.130700
     34 C35          0.7200     2.5790     3.6110 cx         1 M66      -0.072000
     35 C36          1.2300     3.3560     4.8050 c3         1 M66      -0.068600
     36 C37         -0.3230     3.3360     2.8220 c3         1 M66      -0.068600
     37 C38          2.5900     0.2340     1.1350 c          1 M66       0.595100
     38 O39          2.5420    -0.9130     1.5460 o          1 M66      -0.601100
     39 N40          3.5800     0.7230     0.3710 ns         1 M66      -0.492900
     40 C41          4.7040    -0.0660    -0.0640 c3         1 M66       0.020700
     41 C42          4.6010    -0.4610    -1.5490 c3         1 M66      -0.082400
     42 C43          3.3980    -1.3510    -1.8360 c3         1 M66      -0.079400
     43 C44          3.3380    -1.7740    -3.2960 c3         1 M66      -0.087100
     44 C46          5.9850     0.7030     0.1580 c          1 M66       0.488100
     45 O47          7.2210    -1.3520     0.2340 o          1 M66      -0.579100
     46 N48          8.3810     0.5990     0.3310 ns         1 M66      -0.481900
     47 C49          9.7140     0.0330     0.4070 c3         1 M66       0.130200
     48 C50         10.3550    -0.0670    -0.9450 c2         1 M66      -0.247200
     49 C51         11.4760     0.5600    -1.2780 c2         1 M66      -0.301000
     50 C52          7.2730    -0.1330     0.2380 c          1 M66       0.501100
     51 HN3         -4.0240     0.2540    -2.3480 hn         1 M66       0.291500
     52 H6          -4.3760     2.9240    -1.1590 h1         1 M66       0.106700
     53 H8          -2.6670     2.5820    -3.5610 hc         1 M66       0.036589
     54 H8A         -3.4560     3.7830    -4.5840 hc         1 M66       0.036589
     55 H8B         -3.1640     4.1330    -2.8820 hc         1 M66       0.036589
     56 H9          -6.1510     1.2440    -4.1020 hc         1 M66       0.036589
     57 H9A         -5.2760     2.2060    -5.2830 hc         1 M66       0.036589
     58 H9B         -4.4380     0.9430    -4.4060 hc         1 M66       0.036589
     59 H10         -5.6840     4.5970    -2.4410 hc         1 M66       0.036589
     60 H10A        -5.7720     4.4590    -4.1960 hc         1 M66       0.036589
     61 H10B        -6.8720     3.5290    -3.1910 hc         1 M66       0.036589
     62 H12         -4.5660     1.1590     2.6200 hc         1 M66       0.075200
     63 H12A        -6.1140     1.7220     3.2140 hc         1 M66       0.075200
     64 H13         -5.7530    -0.8020     3.4130 hc         1 M66       0.046700
     65 H13A        -7.2060    -0.3750     2.5290 hc         1 M66       0.046700
     66 H14         -4.5090    -1.0280     1.2530 hc         1 M66       0.052700
     67 H14A        -5.8910    -2.1090     1.2740 hc         1 M66       0.052700
     68 H15         -7.2090    -0.6630    -0.1020 h1         1 M66       0.033200
     69 H15A        -5.6340    -0.8110    -0.8570 h1         1 M66       0.033200
     70 H16         -6.6070     1.0040    -1.9640 h1         1 M66       0.056200
     71 H16A        -6.7880     2.5630    -1.1880 h1         1 M66       0.056200
     72 HN17        -2.4970    -1.0170    -1.4100 hn         1 M66       0.317500
     73 H18         -2.0810    -0.5350     1.4060 h1         1 M66       0.071700
     74 H19         -0.4580    -2.2950     1.3190 hc         1 M66       0.076700
     75 H20         -2.5600    -3.3330     1.5980 hc         1 M66       0.059700
     76 H20A        -3.1430    -2.8440     0.0180 hc         1 M66       0.059700
     77 H21         -0.6100    -2.1190    -1.7080 hc         1 M66       0.059700
     78 H21A         0.7760    -2.3740    -0.6700 hc         1 M66       0.059700
     79 H24          1.0000    -4.8150    -2.1330 ha         1 M66       0.114000
     80 H25          0.2120    -7.1570    -2.0060 ha         1 M66       0.112000
     81 H26         -1.7710    -7.7330    -0.6570 ha         1 M66       0.112000
     82 H27         -2.9950    -5.9760     0.5810 ha         1 M66       0.114000
     83 H31         -1.3030     0.5770     3.0000 h1         1 M66       0.055700
     84 H31A        -0.1690    -0.7730     3.1190 h1         1 M66       0.055700
     85 H32          1.5060     2.0920     0.8280 h1         1 M66       0.091700
     86 H33          2.7650     1.7370     3.3040 hc         1 M66       0.101700
     87 H34          0.8590     0.6710     4.7730 hc         1 M66       0.098700
     88 H36          1.7020     4.2880     4.4900 hc         1 M66       0.044200
     89 H36A         0.4090     3.6100     5.4800 hc         1 M66       0.044200
     90 H36B         1.9650     2.7890     5.3790 hc         1 M66       0.044200
     91 H37         -0.6710     2.8140     1.9330 hc         1 M66       0.044200
     92 H37A        -1.1970     3.5330     3.4460 hc         1 M66       0.044200
     93 H37B         0.0760     4.3020     2.5040 hc         1 M66       0.044200
     94 HN40         3.4980     1.6640     0.0200 hn         1 M66       0.329500
     95 H41          4.7280    -0.9760     0.5360 h1         1 M66       0.121700
     96 H42          4.5510     0.4470    -2.1590 hc         1 M66       0.049700
     97 H42A         5.5150    -0.9820    -1.8430 hc         1 M66       0.049700
     98 H43          3.4440    -2.2360    -1.1950 hc         1 M66       0.055200
     99 H43A         2.4770    -0.8270    -1.5710 hc         1 M66       0.055200
    100 H44          3.2740    -0.9080    -3.9570 hc         1 M66       0.031033
    101 H44A         4.2230    -2.3450    -3.5840 hc         1 M66       0.031033
    102 H44B         2.4660    -2.4010    -3.4880 hc         1 M66       0.031033
    103 HN48         8.2970     1.6030     0.2850 hn         1 M66       0.335500
    104 H49         10.3110     0.6610     1.0680 h1         1 M66       0.064700
    105 H49A         9.6400    -0.9530     0.8680 h1         1 M66       0.064700
    106 H50          9.8480    -0.6960    -1.6700 ha         1 M66       0.182000
    107 H51         12.0010     1.1980    -0.5760 ha         1 M66       0.164500
    108 H51A        11.9100     0.4590    -2.2640 ha         1 M66       0.164500
    109 O45          6.0230     1.9030     0.2510 o          1 M66      -0.506100
    110 O4          -5.8760     3.0320     1.0550 o          1 M66      -0.567000
@<TRIPOS>BOND
     1     1     2 2   
     2     1     3 1   
     3     1    16 1   
     4     3     5 1   
     5     3    51 1   
     6     4    10 1   
     7     4    14 1   
     8     4    15 1   
     9     5     6 1   
    10     5    15 1   
    11     5    52 1   
    12     6     7 1   
    13     6     8 1   
    14     6     9 1   
    15     7    53 1   
    16     7    54 1   
    17     7    55 1   
    18     8    56 1   
    19     8    57 1   
    20     8    58 1   
    21     9    59 1   
    22     9    60 1   
    23     9    61 1   
    24    10    11 1   
    25    10   110 2   
    26    11    12 1   
    27    11    62 1   
    28    11    63 1   
    29    12    13 1   
    30    12    64 1   
    31    12    65 1   
    32    13    14 1   
    33    13    66 1   
    34    13    67 1   
    35    14    68 1   
    36    14    69 1   
    37    15    70 1   
    38    15    71 1   
    39    16    17 1   
    40    16    72 1   
    41    17    18 1   
    42    17    27 1   
    43    17    73 1   
    44    18    19 1   
    45    18    20 1   
    46    18    74 1   
    47    19    21 1   
    48    19    75 1   
    49    19    76 1   
    50    20    22 1   
    51    20    77 1   
    52    20    78 1   
    53    21    22 ar  
    54    21    26 ar  
    55    22    23 ar  
    56    23    24 ar  
    57    23    79 1   
    58    24    25 ar  
    59    24    80 1   
    60    25    26 ar  
    61    25    81 1   
    62    26    82 1   
    63    27    28 2   
    64    27    29 1   
    65    29    30 1   
    66    29    31 1   
    67    30    33 1   
    68    30    83 1   
    69    30    84 1   
    70    31    32 1   
    71    31    37 1   
    72    31    85 1   
    73    32    33 1   
    74    32    34 1   
    75    32    86 1   
    76    33    34 1   
    77    33    87 1   
    78    34    35 1   
    79    34    36 1   
    80    35    88 1   
    81    35    89 1   
    82    35    90 1   
    83    36    91 1   
    84    36    92 1   
    85    36    93 1   
    86    37    38 2   
    87    37    39 1   
    88    39    40 1   
    89    39    94 1   
    90    40    41 1   
    91    40    44 1   
    92    40    95 1   
    93    41    42 1   
    94    41    96 1   
    95    41    97 1   
    96    42    43 1   
    97    42    98 1   
    98    42    99 1   
    99    43   100 1   
   100    43   101 1   
   101    43   102 1   
   102    44    50 1   
   103    44   109 2   
   104    45    50 2   
   105    46    47 1   
   106    46    50 1   
   107    46   103 1   
   108    47    48 1   
   109    47   104 1   
   110    47   105 1   
   111    48    49 2   
   112    48   106 1   
   113    49   107 1   
   114    49   108 1   
@<TRIPOS>SUBSTRUCTURE
     1 M66         1 TEMP              0 ****  ****    0 ROOT
