@<TRIPOS>MOLECULE
M66
  110   114     1     0     0
SMALL
No Charge or Current Charge


@<TRIPOS>ATOM
      1 C1          -3.4310     0.9070    -0.5970 c          1 M66       0.648100
      2 O2          -3.6110     1.6410     0.3600 o          1 M66      -0.640100
      3 N3          -4.1450     0.9760    -1.7630 ns         1 M66      -0.495900
      4 N5          -6.6960     0.6620    -0.2900 n          1 M66      -0.417800
      5 C6          -5.2720     1.8930    -2.0030 c3         1 M66       0.098700
      6 C7          -5.1870     2.5520    -3.4290 c3         1 M66      -0.045000
      7 C8          -3.8090     3.2560    -3.5970 c3         1 M66      -0.086100
      8 C9          -5.3430     1.4930    -4.5580 c3         1 M66      -0.086100
      9 C10         -6.2930     3.6310    -3.5960 c3         1 M66      -0.086100
     10 C11         -7.1370     1.5020     0.7610 c          1 M66       0.577000
     11 C12         -7.1040     0.9670     2.2030 c6         1 M66      -0.159400
     12 C13         -7.1830    -0.5690     2.3120 c6         1 M66      -0.072400
     13 C14         -6.1620    -1.1990     1.3500 c6         1 M66      -0.094400
     14 C15         -6.4610    -0.7940    -0.1070 c6         1 M66       0.118000
     15 C16         -6.6240     1.1900    -1.6760 c3         1 M66       0.077000
     16 N17         -2.4900    -0.0820    -0.6230 ns         1 M66      -0.516900
     17 C18         -1.6110    -0.4260     0.5170 c3         1 M66       0.066700
     18 C19         -1.4530    -1.9630     0.6980 c5         1 M66      -0.080700
     19 C20         -2.8080    -2.7600     0.8740 c5         1 M66      -0.030100
     20 C21         -0.6860    -2.7020    -0.4730 c5         1 M66      -0.030100
     21 C22         -2.3770    -4.1340     0.4370 ca         1 M66      -0.090300
     22 C23         -1.2130    -4.1020    -0.3040 ca         1 M66      -0.090300
     23 C24         -0.6510    -5.2820    -0.8170 ca         1 M66      -0.095000
     24 C25         -1.2940    -6.5090    -0.5620 ca         1 M66      -0.111000
     25 C26         -2.4840    -6.5410     0.1950 ca         1 M66      -0.111000
     26 C27         -3.0350    -5.3460     0.6990 ca         1 M66      -0.095000
     27 C28         -0.2270     0.2980     0.3910 c          1 M66       0.603100
     28 O29          0.1690     0.7490    -0.6810 o          1 M66      -0.613100
     29 N30          0.6100     0.3520     1.5280 n          1 M66      -0.389800
     30 C31          0.0650     0.3440     2.9090 c5         1 M66       0.137000
     31 C32          2.0000     0.8950     1.4240 c5         1 M66       0.061700
     32 C33          2.3950     1.1680     2.8900 cx         1 M66      -0.130700
     33 C34          1.2280     0.8380     3.7800 cx         1 M66      -0.130700
     34 C35          1.6600     2.2880     3.6120 cx         1 M66      -0.072000
     35 C36          2.3680     2.9620     4.7860 c3         1 M66      -0.068600
     36 C37          0.8000     3.3280     2.8710 c3         1 M66      -0.068600
     37 C38          2.9850    -0.0920     0.7220 c          1 M66       0.595100
     38 O39          2.8040    -1.2750     0.4630 o          1 M66      -0.601100
     39 N40          4.1690     0.5650     0.4460 ns         1 M66      -0.492900
     40 C41          5.3350    -0.0390    -0.2420 c3         1 M66       0.020700
     41 C42          5.3160     0.2420    -1.7700 c3         1 M66      -0.082400
     42 C43          4.0810    -0.3220    -2.5130 c3         1 M66      -0.079400
     43 C44          4.1410    -0.0960    -4.0350 c3         1 M66      -0.087100
     44 C46          6.6570     0.4530     0.4090 c          1 M66       0.488100
     45 O47          7.9030    -1.5680    -0.3430 o          1 M66      -0.579100
     46 N48          9.1300     0.0790     0.6690 ns         1 M66      -0.481900
     47 C49         10.4430    -0.5540     0.5610 c3         1 M66       0.130200
     48 C50         11.1310    -0.0790    -0.6970 c2         1 M66      -0.247200
     49 C51         11.7260     1.1160    -0.8560 c2         1 M66      -0.301000
     50 C52          7.9460    -0.4650     0.1950 c          1 M66       0.501100
     51 HN3         -3.9030     0.3200    -2.4920 hn         1 M66       0.291500
     52 H6          -5.1810     2.7170    -1.2810 h1         1 M66       0.106700
     53 H8          -2.9810     2.5370    -3.5730 hc         1 M66       0.036589
     54 H8A         -3.7530     3.7860    -4.5560 hc         1 M66       0.036589
     55 H8B         -3.6440     3.9890    -2.7980 hc         1 M66       0.036589
     56 H9          -6.3270     1.0110    -4.5220 hc         1 M66       0.036589
     57 H9A         -5.2440     1.9620    -5.5450 hc         1 M66       0.036589
     58 H9B         -4.5780     0.7120    -4.4840 hc         1 M66       0.036589
     59 H10         -6.2550     4.3620    -2.7790 hc         1 M66       0.036589
     60 H10A        -6.1680     4.1770    -4.5400 hc         1 M66       0.036589
     61 H10B        -7.2950     3.1870    -3.6110 hc         1 M66       0.036589
     62 H12         -6.1260     1.2710     2.6000 hc         1 M66       0.075200
     63 H12A        -7.8580     1.4830     2.8110 hc         1 M66       0.075200
     64 H13         -6.9820    -0.8870     3.3450 hc         1 M66       0.046700
     65 H13A        -8.1970    -0.9130     2.0630 hc         1 M66       0.046700
     66 H14         -5.1490    -0.8710     1.6210 hc         1 M66       0.052700
     67 H14A        -6.1740    -2.2930     1.4420 hc         1 M66       0.052700
     68 H15         -7.3610    -1.3270    -0.4440 h1         1 M66       0.033200
     69 H15A        -5.6330    -1.1200    -0.7500 h1         1 M66       0.033200
     70 H16         -6.7710     0.3560    -2.3730 h1         1 M66       0.056200
     71 H16A        -7.4570     1.8850    -1.8330 h1         1 M66       0.056200
     72 HN17        -2.3940    -0.6080    -1.4810 hn         1 M66       0.317500
     73 H18         -2.0880    -0.0460     1.4280 h1         1 M66       0.071700
     74 H19         -0.8670    -2.1060     1.6120 hc         1 M66       0.076700
     75 H20         -3.1750    -2.7310     1.9060 hc         1 M66       0.059700
     76 H20A        -3.6050    -2.3810     0.2260 hc         1 M66       0.059700
     77 H21         -0.9410    -2.3010    -1.4600 hc         1 M66       0.059700
     78 H21A         0.4020    -2.6380    -0.3600 hc         1 M66       0.059700
     79 H24          0.2650    -5.2490    -1.4030 ha         1 M66       0.114000
     80 H25         -0.8730    -7.4330    -0.9510 ha         1 M66       0.112000
     81 H26         -2.9800    -7.4900     0.3890 ha         1 M66       0.112000
     82 H27         -3.9540    -5.3630     1.2800 ha         1 M66       0.114000
     83 H31         -0.8190     0.9900     2.9980 h1         1 M66       0.055700
     84 H31A        -0.2400    -0.6690     3.2000 h1         1 M66       0.055700
     85 H32          2.0080     1.8180     0.8300 h1         1 M66       0.091700
     86 H33          3.3980     0.9170     3.2330 hc         1 M66       0.101700
     87 H34          1.4160     0.3580     4.7370 hc         1 M66       0.098700
     88 H36          3.0200     3.7740     4.4400 hc         1 M66       0.044200
     89 H36A         1.6440     3.3870     5.4920 hc         1 M66       0.044200
     90 H36B         2.9930     2.2530     5.3430 hc         1 M66       0.044200
     91 H37          0.2490     2.9240     2.0160 hc         1 M66       0.044200
     92 H37A         0.0590     3.7680     3.5480 hc         1 M66       0.044200
     93 H37B         1.4250     4.1450     2.4910 hc         1 M66       0.044200
     94 HN40         4.2370     1.5330     0.7430 hn         1 M66       0.329500
     95 H41          5.3090    -1.1270    -0.0910 h1         1 M66       0.121700
     96 H42          5.3700     1.3260    -1.9360 hc         1 M66       0.049700
     97 H42A         6.2190    -0.1880    -2.2210 hc         1 M66       0.049700
     98 H43          3.9970    -1.3980    -2.3150 hc         1 M66       0.055200
     99 H43A         3.1690     0.1480    -2.1260 hc         1 M66       0.055200
    100 H44          4.1930     0.9750    -4.2670 hc         1 M66       0.031033
    101 H44A         5.0210    -0.5880    -4.4680 hc         1 M66       0.031033
    102 H44B         3.2460    -0.5080    -4.5180 hc         1 M66       0.031033
    103 HN48         9.0700     0.9970     1.0980 hn         1 M66       0.335500
    104 H49         11.0400    -0.2860     1.4440 h1         1 M66       0.064700
    105 H49A        10.3320    -1.6470     0.5490 h1         1 M66       0.064700
    106 H50         11.1140    -0.8040    -1.5150 ha         1 M66       0.182000
    107 H51         11.7560     1.8550    -0.0530 ha         1 M66       0.164500
    108 H51A        12.2060     1.3960    -1.7950 ha         1 M66       0.164500
    109 O45          6.7130     1.4930     1.0710 o          1 M66      -0.506100
    110 O4          -7.5430     2.6370     0.5440 o          1 M66      -0.567000
@<TRIPOS>BOND
     1     1     2 2   
     2     1     3 1   
     3     1    16 1   
     4     3     5 1   
     5     3    51 1   
     6     4    10 1   
     7     4    14 1   
     8     4    15 1   
     9     5     6 1   
    10     5    15 1   
    11     5    52 1   
    12     6     7 1   
    13     6     8 1   
    14     6     9 1   
    15     7    53 1   
    16     7    54 1   
    17     7    55 1   
    18     8    56 1   
    19     8    57 1   
    20     8    58 1   
    21     9    59 1   
    22     9    60 1   
    23     9    61 1   
    24    10    11 1   
    25    10   110 2   
    26    11    12 1   
    27    11    62 1   
    28    11    63 1   
    29    12    13 1   
    30    12    64 1   
    31    12    65 1   
    32    13    14 1   
    33    13    66 1   
    34    13    67 1   
    35    14    68 1   
    36    14    69 1   
    37    15    70 1   
    38    15    71 1   
    39    16    17 1   
    40    16    72 1   
    41    17    18 1   
    42    17    27 1   
    43    17    73 1   
    44    18    19 1   
    45    18    20 1   
    46    18    74 1   
    47    19    21 1   
    48    19    75 1   
    49    19    76 1   
    50    20    22 1   
    51    20    77 1   
    52    20    78 1   
    53    21    22 ar  
    54    21    26 ar  
    55    22    23 ar  
    56    23    24 ar  
    57    23    79 1   
    58    24    25 ar  
    59    24    80 1   
    60    25    26 ar  
    61    25    81 1   
    62    26    82 1   
    63    27    28 2   
    64    27    29 1   
    65    29    30 1   
    66    29    31 1   
    67    30    33 1   
    68    30    83 1   
    69    30    84 1   
    70    31    32 1   
    71    31    37 1   
    72    31    85 1   
    73    32    33 1   
    74    32    34 1   
    75    32    86 1   
    76    33    34 1   
    77    33    87 1   
    78    34    35 1   
    79    34    36 1   
    80    35    88 1   
    81    35    89 1   
    82    35    90 1   
    83    36    91 1   
    84    36    92 1   
    85    36    93 1   
    86    37    38 2   
    87    37    39 1   
    88    39    40 1   
    89    39    94 1   
    90    40    41 1   
    91    40    44 1   
    92    40    95 1   
    93    41    42 1   
    94    41    96 1   
    95    41    97 1   
    96    42    43 1   
    97    42    98 1   
    98    42    99 1   
    99    43   100 1   
   100    43   101 1   
   101    43   102 1   
   102    44    50 1   
   103    44   109 2   
   104    45    50 2   
   105    46    47 1   
   106    46    50 1   
   107    46   103 1   
   108    47    48 1   
   109    47   104 1   
   110    47   105 1   
   111    48    49 2   
   112    48   106 1   
   113    49   107 1   
   114    49   108 1   
@<TRIPOS>SUBSTRUCTURE
     1 M66         1 TEMP              0 ****  ****    0 ROOT
