@<TRIPOS>MOLECULE
M67
   72    74     1     0     0
SMALL
No Charge or Current Charge


@<TRIPOS>ATOM
      1 C1          10.3520     3.3020     0.2930 c3         1 M67      -0.087100
      2 C2           9.3040     2.1890     0.4930 c3         1 M67      -0.095400
      3 C3           7.8560     2.7090     0.4190 c3         1 M67       0.104000
      4 N4           6.8860     1.6310     0.6120 ns         1 M67      -0.504900
      5 C5           5.5180     1.8020     0.5810 c          1 M67       0.593100
      6 O6           5.0100     2.9020     0.3890 o          1 M67      -0.610100
      7 C7           4.6800     0.5040     0.8140 c3         1 M67       0.081800
      8 N8           3.3360     0.4980     0.1440 n7         1 M67      -0.862400
      9 C9           2.3920    -0.6220     0.5090 c3         1 M67       0.112500
     10 C11          2.8650    -1.9930    -0.1210 c6         1 M67      -0.048700
     11 C12          2.3660    -3.2500     0.6540 c6         1 M67      -0.077400
     12 C13          2.9580    -4.5500     0.0550 c6         1 M67      -0.071400
     13 C14          2.6280    -4.6720    -1.4530 c6         1 M67      -0.077400
     14 C15          3.1140    -3.4260    -2.2340 c6         1 M67      -0.071400
     15 C16          2.5290    -2.1220    -1.6350 c6         1 M67      -0.077400
     16 C17          0.8490    -0.2710     0.3040 c          1 M67       0.620100
     17 O18          0.0360    -1.1430     0.5990 o          1 M67      -0.617100
     18 N19          0.6080     1.1070    -0.0480 nj         1 M67      -0.397800
     19 C20          0.9010     1.1060    -1.5150 cy         1 M67       0.131000
     20 C21         -0.4400     1.9200    -1.6360 cy         1 M67      -0.105400
     21 C22         -0.8840     1.1810    -0.3000 cy         1 M67       0.015700
     22 C24         -1.7870     0.1190    -1.1080 c          1 M67       0.598100
     23 O25         -1.5240    -0.7250    -1.9600 o          1 M67      -0.601100
     24 N26         -3.1010     0.2530    -0.7110 ns         1 M67      -0.498900
     25 C27         -4.2100    -0.5450    -1.2290 c3         1 M67       0.151300
     26 C28         -5.5250    -0.1310    -0.5870 ca         1 M67      -0.101300
     27 C29         -6.3120     0.8790    -1.1660 ca         1 M67      -0.105000
     28 C30         -7.5260     1.2640    -0.5720 ca         1 M67      -0.082500
     29 C31         -7.9720     0.6600     0.6260 ca         1 M67      -0.136900
     30 C32         -7.1810    -0.3700     1.1910 ca         1 M67      -0.082500
     31 C33         -5.9670    -0.7540     0.5930 ca         1 M67      -0.105000
     32 C34         -9.2870     1.0580     1.2330 ce         1 M67       0.659800
     33 N35        -10.1830     1.6970     0.6010 n2         1 M67      -0.827100
     34 N36         -9.4840     0.8160     2.5480 nv         1 M67      -1.077200
     35 H23         11.3660     2.8880     0.3540 hc         1 M67       0.037700
     36 H11C        10.2330     3.7750    -0.6890 hc         1 M67       0.037700
     37 H12C        10.2500     4.0740     1.0650 hc         1 M67       0.037700
     38 H21C         9.4520     1.4180    -0.2720 hc         1 M67       0.042200
     39 H22C         9.4700     1.7140     1.4680 hc         1 M67       0.042200
     40 H31C         7.6980     3.4710     1.1940 h1         1 M67       0.052700
     41 H32C         7.6810     3.1730    -0.5610 h1         1 M67       0.052700
     42 H4           7.2290     0.6920     0.7760 hn         1 M67       0.313500
     43 H71C         5.2870    -0.3410     0.4640 h1         1 M67       0.048700
     44 H72C         4.5720     0.3940     1.9010 h1         1 M67       0.048700
     45 H8           2.8720     1.3870     0.3890 hn         1 M67       0.443000
     46 H9           2.4700    -0.7500     1.5970 h1         1 M67       0.048700
     47 H11          3.9580    -2.0080    -0.0320 hc         1 M67       0.035700
     48 H121         2.6470    -3.1750     1.7140 hc         1 M67       0.054450
     49 H122         1.2720    -3.3210     0.6260 hc         1 M67       0.054450
     50 H161         1.4410    -2.1160    -1.7830 hc         1 M67       0.054450
     51 H162         2.9290    -1.2590    -2.1840 hc         1 M67       0.054450
     52 H131         4.0480    -4.5620     0.1980 hc         1 M67       0.033950
     53 H132         2.5640    -5.4220     0.5940 hc         1 M67       0.033950
     54 H141         3.0950    -5.5760    -1.8650 hc         1 M67       0.041700
     55 H142         1.5440    -4.7920    -1.5860 hc         1 M67       0.041700
     56 H151         4.2110    -3.3830    -2.2150 hc         1 M67       0.033950
     57 H152         2.8240    -3.5130    -3.2900 hc         1 M67       0.033950
     58 H201         1.7950     1.6740    -1.7950 h1         1 M67       0.065200
     59 H202         0.8870     0.1290    -2.0120 h1         1 M67       0.065200
     60 H22         -1.4270     1.8200     0.4040 h1         1 M67       0.071700
     61 H211        -0.3000     2.9990    -1.5030 hc         1 M67       0.067200
     62 H212        -1.0070     1.7870    -2.5660 hc         1 M67       0.067200
     63 H26         -3.3040     0.9510    -0.0060 hn         1 M67       0.320500
     64 H271        -4.2690    -0.4130    -2.3170 h1         1 M67       0.060200
     65 H272        -4.0130    -1.6060    -1.0250 h1         1 M67       0.060200
     66 H29         -5.9850     1.3680    -2.0820 ha         1 M67       0.120500
     67 H33         -5.3720    -1.5440     1.0480 ha         1 M67       0.120500
     68 H30         -8.1180     2.0460    -1.0440 ha         1 M67       0.129500
     69 H32         -7.5040    -0.8900     2.0900 ha         1 M67       0.129500
     70 H35        -11.0450     1.6660     1.1560 hn         1 M67       0.371400
     71 H361        -8.6430     0.5960     3.0690 hn         1 M67       0.462000
     72 H362       -10.1320     1.4330     3.0240 hn         1 M67       0.462000
@<TRIPOS>BOND
     1     1     2 1   
     2     1    35 1   
     3     1    36 1   
     4     1    37 1   
     5     2     3 1   
     6     2    38 1   
     7     2    39 1   
     8     3     4 1   
     9     3    40 1   
    10     3    41 1   
    11     4     5 1   
    12     4    42 1   
    13     5     6 2   
    14     5     7 1   
    15     7     8 1   
    16     7    43 1   
    17     7    44 1   
    18     8     9 1   
    19     8    45 1   
    20     9    10 1   
    21     9    16 1   
    22     9    46 1   
    23    10    11 1   
    24    10    15 1   
    25    10    47 1   
    26    11    12 1   
    27    11    48 1   
    28    11    49 1   
    29    12    13 1   
    30    12    52 1   
    31    12    53 1   
    32    13    14 1   
    33    13    54 1   
    34    13    55 1   
    35    14    15 1   
    36    14    56 1   
    37    14    57 1   
    38    15    50 1   
    39    15    51 1   
    40    16    17 2   
    41    16    18 1   
    42    18    19 1   
    43    18    21 1   
    44    19    20 1   
    45    19    58 1   
    46    19    59 1   
    47    20    21 1   
    48    20    61 1   
    49    20    62 1   
    50    21    22 1   
    51    21    60 1   
    52    22    23 2   
    53    22    24 1   
    54    24    25 1   
    55    24    63 1   
    56    25    26 1   
    57    25    64 1   
    58    25    65 1   
    59    26    27 ar  
    60    26    31 ar  
    61    27    28 ar  
    62    27    66 1   
    63    28    29 ar  
    64    28    68 1   
    65    29    30 ar  
    66    29    32 1   
    67    30    31 ar  
    68    30    69 1   
    69    31    67 1   
    70    32    33 2   
    71    32    34 1   
    72    33    70 1   
    73    34    71 1   
    74    34    72 1   
@<TRIPOS>SUBSTRUCTURE
     1 M67         1 TEMP              0 ****  ****    0 ROOT
