@<TRIPOS>MOLECULE
M67
   72    74     1     0     0
SMALL
abcg2


@<TRIPOS>ATOM
      1 C1          10.1260     3.1600     0.0520 c3         1 M67      -0.087100
      2 C2           9.0940     2.0440    -0.0020 c3         1 M67      -0.095400
      3 C3           7.7340     2.5100     0.4910 c3         1 M67       0.104000
      4 N4           6.7690     1.4310     0.4260 ns         1 M67      -0.504900
      5 C5           5.4720     1.5880     0.7120 c          1 M67       0.593100
      6 O6           4.9740     2.6710     0.9900 o          1 M67      -0.610100
      7 C7           4.6570     0.3060     0.7180 c3         1 M67       0.081800
      8 N8           3.2760     0.5840     0.4030 n7         1 M67      -0.862400
      9 C9           2.3590    -0.4550     0.8290 c3         1 M67       0.112500
     10 C11          2.6280    -1.7950     0.1130 c6         1 M67      -0.048700
     11 C12          1.7200    -2.9250     0.6010 c6         1 M67      -0.077400
     12 C13          2.1530    -4.2600     0.0000 c6         1 M67      -0.071400
     13 C14          2.1550    -4.2020    -1.5240 c6         1 M67      -0.077400
     14 C15          3.0150    -3.0490    -2.0320 c6         1 M67      -0.071400
     15 C16          2.5910    -1.7190    -1.4130 c6         1 M67      -0.077400
     16 C17          0.9180    -0.0060     0.6580 c          1 M67       0.620100
     17 O18          0.0370    -0.4170     1.4070 o          1 M67      -0.617100
     18 N19          0.6050     0.8540    -0.3190 nj         1 M67      -0.397800
     19 C20          1.2330     1.5000    -1.4700 cy         1 M67       0.131000
     20 C21         -0.1670     1.9620    -1.9120 cy         1 M67      -0.105400
     21 C22         -0.7460     1.2260    -0.6770 cy         1 M67       0.015700
     22 C24         -1.6140     0.0280    -1.0230 c          1 M67       0.598100
     23 O25         -1.1820    -0.9080    -1.6770 o          1 M67      -0.601100
     24 N26         -2.8850     0.1130    -0.6110 ns         1 M67      -0.498900
     25 C27         -3.8630    -0.9210    -0.8910 c3         1 M67       0.151300
     26 C28         -5.2170    -0.4870    -0.4040 ca         1 M67      -0.101300
     27 C29         -5.9480     0.4700    -1.1060 ca         1 M67      -0.105000
     28 C30         -7.1780     0.9000    -0.6420 ca         1 M67      -0.082500
     29 C31         -7.7080     0.3920     0.5440 ca         1 M67      -0.136900
     30 C32         -6.9820    -0.5710     1.2410 ca         1 M67      -0.082500
     31 C33         -5.7500    -1.0020     0.7700 ca         1 M67      -0.105000
     32 C34         -9.0320     0.8770     1.0220 ce         1 M67       0.659800
     33 N35         -9.8560     1.3480     0.1660 n2         1 M67      -0.827100
     34 N36         -9.2610     0.7250     2.3590 nv         1 M67      -1.077200
     35 H23         11.0920     2.8170    -0.3180 hc         1 M67       0.037700
     36 H11C         9.8210     4.0120    -0.5580 hc         1 M67       0.037700
     37 H12C        10.2710     3.5180     1.0720 hc         1 M67       0.037700
     38 H21C         9.0000     1.6750    -1.0270 hc         1 M67       0.042200
     39 H22C         9.4330     1.1990     0.6050 hc         1 M67       0.042200
     40 H31C         7.8170     2.8790     1.5180 h1         1 M67       0.052700
     41 H32C         7.3870     3.3480    -0.1190 h1         1 M67       0.052700
     42 H4           7.1060     0.5070     0.2070 hn         1 M67       0.313500
     43 H71C         5.0860    -0.4050     0.0090 h1         1 M67       0.048700
     44 H72C         4.7870    -0.1420     1.7190 h1         1 M67       0.048700
     45 H8           3.0280     1.4560     0.8570 hn         1 M67       0.443000
     46 H9           2.4670    -0.6640     1.9070 h1         1 M67       0.048700
     47 H11          3.6490    -2.0800     0.4030 hc         1 M67       0.035700
     48 H121         1.7360    -2.9800     1.6930 hc         1 M67       0.054450
     49 H122         0.6850    -2.7250     0.3100 hc         1 M67       0.054450
     50 H161         1.5750    -1.4760    -1.7420 hc         1 M67       0.054450
     51 H162         3.2400    -0.9170    -1.7710 hc         1 M67       0.054450
     52 H131         3.1560    -4.5140     0.3590 hc         1 M67       0.033950
     53 H132         1.4900    -5.0570     0.3460 hc         1 M67       0.033950
     54 H141         2.5050    -5.1500    -1.9420 hc         1 M67       0.041700
     55 H142         1.1270    -4.0670    -1.8780 hc         1 M67       0.041700
     56 H151         4.0650    -3.2430    -1.7840 hc         1 M67       0.033950
     57 H152         2.9610    -2.9880    -3.1210 hc         1 M67       0.033950
     58 H201         1.9240     2.2990    -1.2070 h1         1 M67       0.065200
     59 H202         1.7330     0.8100    -2.1470 h1         1 M67       0.065200
     60 H22         -1.2330     1.8770     0.0530 h1         1 M67       0.071700
     61 H211        -0.3190     3.0380    -1.8900 hc         1 M67       0.067200
     62 H212        -0.4950     1.5720    -2.8730 hc         1 M67       0.067200
     63 H26         -3.1560     0.8760    -0.0110 hn         1 M67       0.320500
     64 H271        -3.8910    -1.1110    -1.9660 h1         1 M67       0.060200
     65 H272        -3.5730    -1.8580    -0.4080 h1         1 M67       0.060200
     66 H29         -5.5520     0.8840    -2.0260 ha         1 M67       0.120500
     67 H33         -5.2010    -1.7520     1.3260 ha         1 M67       0.120500
     68 H30         -7.7380     1.6420    -1.1960 ha         1 M67       0.129500
     69 H32         -7.3750    -1.0100     2.1500 ha         1 M67       0.129500
     70 H35        -10.7080     1.6730     0.6160 hn         1 M67       0.371400
     71 H361        -8.4710     0.7220     2.9840 hn         1 M67       0.462000
     72 H362       -10.0780     1.1710     2.7440 hn         1 M67       0.462000
@<TRIPOS>BOND
     1     1     2 1   
     2     1    35 1   
     3     1    36 1   
     4     1    37 1   
     5     2     3 1   
     6     2    38 1   
     7     2    39 1   
     8     3     4 1   
     9     3    40 1   
    10     3    41 1   
    11     4     5 1   
    12     4    42 1   
    13     5     6 2   
    14     5     7 1   
    15     7     8 1   
    16     7    43 1   
    17     7    44 1   
    18     8     9 1   
    19     8    45 1   
    20     9    10 1   
    21     9    16 1   
    22     9    46 1   
    23    10    11 1   
    24    10    15 1   
    25    10    47 1   
    26    11    12 1   
    27    11    48 1   
    28    11    49 1   
    29    12    13 1   
    30    12    52 1   
    31    12    53 1   
    32    13    14 1   
    33    13    54 1   
    34    13    55 1   
    35    14    15 1   
    36    14    56 1   
    37    14    57 1   
    38    15    50 1   
    39    15    51 1   
    40    16    17 2   
    41    16    18 1   
    42    18    19 1   
    43    18    21 1   
    44    19    20 1   
    45    19    58 1   
    46    19    59 1   
    47    20    21 1   
    48    20    61 1   
    49    20    62 1   
    50    21    22 1   
    51    21    60 1   
    52    22    23 2   
    53    22    24 1   
    54    24    25 1   
    55    24    63 1   
    56    25    26 1   
    57    25    64 1   
    58    25    65 1   
    59    26    27 ar  
    60    26    31 ar  
    61    27    28 ar  
    62    27    66 1   
    63    28    29 ar  
    64    28    68 1   
    65    29    30 ar  
    66    29    32 1   
    67    30    31 ar  
    68    30    69 1   
    69    31    67 1   
    70    32    33 2   
    71    32    34 1   
    72    33    70 1   
    73    34    71 1   
    74    34    72 1   
@<TRIPOS>SUBSTRUCTURE
     1 M67         1 TEMP              0 ****  ****    0 ROOT
