@<TRIPOS>MOLECULE
M68
   43    45     1     0     0
SMALL
No Charge or Current Charge


@<TRIPOS>ATOM
      1 Cl           7.5700    -1.3530    -1.1790 cl         1 M68      -0.209000
      2 C23          6.5540    -0.0530    -0.5680 ca         1 M68       0.122000
      3 C24          6.8790     1.2830    -0.8550 ca         1 M68      -0.104000
      4 C25          6.0660     2.3210    -0.3680 ca         1 M68      -0.101000
      5 C26          4.9310     2.0200     0.4060 ca         1 M68      -0.104000
      6 C22          5.4210    -0.3550     0.2050 ca         1 M68      -0.103000
      7 C21          4.6020     0.6810     0.6980 ca         1 M68      -0.069300
      8 C15          3.3690     0.3560     1.5300 c3         1 M68      -0.037100
      9 C14          2.1140     0.1720     0.6540 c3         1 M68       0.161800
     10 N13          0.9370    -0.1370     1.4900 n7         1 M68      -0.865400
     11 C12         -0.3280    -0.3050     0.7500 c3         1 M68       0.160800
     12 C11         -1.4910    -0.5950     1.7200 c3         1 M68      -0.035100
     13 C08         -2.8160    -0.7660     0.9870 ca         1 M68      -0.060300
     14 C07         -3.2030    -2.0310     0.5110 ca         1 M68      -0.128000
     15 C06         -4.4210    -2.1880    -0.1700 ca         1 M68      -0.072000
     16 C09         -3.6590     0.3420     0.7730 ca         1 M68      -0.099000
     17 C10         -4.8840     0.2080     0.0940 ca         1 M68       0.327000
     18 N01         -5.6710     1.2950    -0.0930 nb         1 M68      -0.760000
     19 C05         -5.2600    -1.0780    -0.3780 ca         1 M68      -0.130000
     20 C04         -6.4800    -1.2330    -1.0610 ca         1 M68      -0.028000
     21 C03         -7.2780    -0.0960    -1.2430 ca         1 M68      -0.211000
     22 C02         -6.8170     1.1200    -0.7360 ca         1 M68       0.615900
     23 N02         -7.4780     2.2720    -0.8530 nv         1 M68      -1.066900
     24 H24          7.7570     1.5120    -1.4530 ha         1 M68       0.129000
     25 H22          5.1780    -1.3930     0.4180 ha         1 M68       0.127000
     26 H25          6.3150     3.3560    -0.5890 ha         1 M68       0.118000
     27 H26          4.3050     2.8290     0.7770 ha         1 M68       0.119000
     28 H151         3.5390    -0.5570     2.1140 hc         1 M68       0.055700
     29 H152         3.1840     1.1560     2.2580 hc         1 M68       0.055700
     30 H141         1.9430     1.0940     0.0820 h1         1 M68       0.034200
     31 H142         2.2960    -0.6380    -0.0650 h1         1 M68       0.034200
     32 H13          1.1280    -1.0090     2.0000 hn         1 M68       0.403000
     33 H121        -0.5610     0.6050     0.1800 h1         1 M68       0.034200
     34 H122        -0.2460    -1.1350     0.0330 h1         1 M68       0.034200
     35 H111        -1.2630    -1.4990     2.2970 hc         1 M68       0.054700
     36 H112        -1.5650     0.2240     2.4460 hc         1 M68       0.054700
     37 H07         -2.5600    -2.8950     0.6660 ha         1 M68       0.111000
     38 H09         -3.3630     1.3220     1.1360 ha         1 M68       0.129000
     39 H06         -4.7100    -3.1720    -0.5330 ha         1 M68       0.111000
     40 H04         -6.7990    -2.2030    -1.4370 ha         1 M68       0.116000
     41 H03         -8.2300    -0.1580    -1.7620 ha         1 M68       0.120000
     42 H021        -6.9200     3.0940    -0.6570 hn         1 M68       0.477000
     43 H022        -8.1490     2.3520    -1.6090 hn         1 M68       0.477000
@<TRIPOS>BOND
     1     1     2 1   
     2     2     3 ar  
     3     2     6 ar  
     4     3     4 ar  
     5     3    24 1   
     6     4     5 ar  
     7     4    26 1   
     8     5     7 ar  
     9     5    27 1   
    10     6     7 ar  
    11     6    25 1   
    12     7     8 1   
    13     8     9 1   
    14     8    28 1   
    15     8    29 1   
    16     9    10 1   
    17     9    30 1   
    18     9    31 1   
    19    10    11 1   
    20    10    32 1   
    21    11    12 1   
    22    11    33 1   
    23    11    34 1   
    24    12    13 1   
    25    12    35 1   
    26    12    36 1   
    27    13    14 ar  
    28    13    16 ar  
    29    14    15 ar  
    30    14    37 1   
    31    15    19 ar  
    32    15    39 1   
    33    16    17 ar  
    34    16    38 1   
    35    17    18 ar  
    36    17    19 ar  
    37    18    22 ar  
    38    19    20 ar  
    39    20    21 ar  
    40    20    40 1   
    41    21    22 ar  
    42    21    41 1   
    43    22    23 1   
    44    23    42 1   
    45    23    43 1   
@<TRIPOS>SUBSTRUCTURE
     1 M68         1 TEMP              0 ****  ****    0 ROOT
