@<TRIPOS>MOLECULE
M68
   43    45     1     0     0
SMALL
abcg2


@<TRIPOS>ATOM
      1 CL           7.1320    -1.4080    -1.5570 cl         1 M68      -0.209000
      2 C23          6.3050    -0.1100    -0.7520 ca         1 M68       0.122000
      3 C24          6.7380     1.1920    -0.9460 ca         1 M68      -0.104000
      4 C25          6.0640     2.2150    -0.2930 ca         1 M68      -0.101000
      5 C26          4.9840     1.9360     0.5310 ca         1 M68      -0.104000
      6 C22          5.2300    -0.4040     0.0700 ca         1 M68      -0.103000
      7 C21          4.5560     0.6250     0.7240 ca         1 M68      -0.069300
      8 C15          3.3600     0.3220     1.5800 c3         1 M68      -0.037100
      9 C14          2.0940     0.1650     0.7400 c3         1 M68       0.161800
     10 N13          0.9440    -0.0790     1.5870 n7         1 M68      -0.865400
     11 C12         -0.2860    -0.2450     0.8390 c3         1 M68       0.160800
     12 C11         -1.4740    -0.4160     1.7820 c3         1 M68      -0.035100
     13 C08         -2.7560    -0.6350     1.0300 ca         1 M68      -0.060300
     14 C07         -3.0460    -1.9110     0.4970 ca         1 M68      -0.128000
     15 C06         -4.1950    -2.1250    -0.2180 ca         1 M68      -0.072000
     16 C09         -3.6400     0.3970     0.8210 ca         1 M68      -0.099000
     17 C10         -4.8330     0.2090     0.0890 ca         1 M68       0.327000
     18 N01         -5.6670     1.2630    -0.0830 nb         1 M68      -0.760000
     19 C05         -5.1090    -1.0760    -0.4340 ca         1 M68      -0.130000
     20 C04         -6.3160    -1.2300    -1.1610 ca         1 M68      -0.028000
     21 C03         -7.1490    -0.1720    -1.3250 ca         1 M68      -0.211000
     22 C02         -6.7800     1.0880    -0.7570 ca         1 M68       0.615900
     23 N02         -7.6280     2.1400    -0.8830 nv         1 M68      -1.066900
     24 H24          7.5830     1.4050    -1.5850 ha         1 M68       0.129000
     25 H22          4.9160    -1.4320     0.2080 ha         1 M68       0.127000
     26 H25          6.3910     3.2370    -0.4300 ha         1 M68       0.118000
     27 H26          4.4700     2.7450     1.0360 ha         1 M68       0.119000
     28 H151         3.5300    -0.5970     2.1490 hc         1 M68       0.055700
     29 H152         3.2090     1.1240     2.3060 hc         1 M68       0.055700
     30 H141         1.9190     1.0860     0.1770 h1         1 M68       0.034200
     31 H142         2.2520    -0.6290    -0.0080 h1         1 M68       0.034200
     32 H13          1.1100    -0.9200     2.1280 hn         1 M68       0.403000
     33 H121        -0.4430     0.6480     0.2260 h1         1 M68       0.034200
     34 H122        -0.2460    -1.0950     0.1390 h1         1 M68       0.034200
     35 H111        -1.2880    -1.2690     2.4420 hc         1 M68       0.054700
     36 H112        -1.5540     0.4670     2.4200 hc         1 M68       0.054700
     37 H07         -2.3520    -2.7270     0.6630 ha         1 M68       0.111000
     38 H09         -3.4340     1.3840     1.2210 ha         1 M68       0.129000
     39 H06         -4.4150    -3.1070    -0.6200 ha         1 M68       0.111000
     40 H04         -6.5680    -2.1960    -1.5830 ha         1 M68       0.116000
     41 H03         -8.0760    -0.2660    -1.8750 ha         1 M68       0.120000
     42 H021        -7.2620     3.0560    -0.6810 hn         1 M68       0.477000
     43 H022        -8.3330     2.1100    -1.5990 hn         1 M68       0.477000
@<TRIPOS>BOND
     1     1     2 1   
     2     2     3 ar  
     3     2     6 ar  
     4     3     4 ar  
     5     3    24 1   
     6     4     5 ar  
     7     4    26 1   
     8     5     7 ar  
     9     5    27 1   
    10     6     7 ar  
    11     6    25 1   
    12     7     8 1   
    13     8     9 1   
    14     8    28 1   
    15     8    29 1   
    16     9    10 1   
    17     9    30 1   
    18     9    31 1   
    19    10    11 1   
    20    10    32 1   
    21    11    12 1   
    22    11    33 1   
    23    11    34 1   
    24    12    13 1   
    25    12    35 1   
    26    12    36 1   
    27    13    14 ar  
    28    13    16 ar  
    29    14    15 ar  
    30    14    37 1   
    31    15    19 ar  
    32    15    39 1   
    33    16    17 ar  
    34    16    38 1   
    35    17    18 ar  
    36    17    19 ar  
    37    18    22 ar  
    38    19    20 ar  
    39    20    21 ar  
    40    20    40 1   
    41    21    22 ar  
    42    21    41 1   
    43    22    23 1   
    44    23    42 1   
    45    23    43 1   
@<TRIPOS>SUBSTRUCTURE
     1 M68         1 TEMP              0 ****  ****    0 ROOT
