@<TRIPOS>MOLECULE
M69
   28    29     1     0     0
SMALL
bcc


@<TRIPOS>ATOM
      1 C01          6.5360     7.1740    18.1550 c6         1 M69      -0.000400
      2 C02          6.1270     7.0220    19.5990 ca         1 M69      -0.081300
      3 C04          6.4360     5.8460    17.4030 c6         1 M69      -0.168900
      4 C05          7.0420     7.2580    20.6190 ca         1 M69      -0.114000
      5 C06          4.8350     6.6340    19.9480 ca         1 M69      -0.114000
      6 C07          6.0790     8.3820    15.9940 c          1 M69       0.616800
      7 C10          4.4620     6.4900    21.2750 ca         1 M69      -0.118500
      8 C11          6.6440     7.2400    15.3040 ce         1 M69      -0.511400
      9 O12          5.8910     9.4490    15.4000 o          1 M69      -0.575100
     10 C15          6.9690     7.3740    13.9740 c2         1 M69       0.246100
     11 C03          5.7060     8.2390    17.4400 c6         1 M69      -0.168900
     12 C08          6.8800     5.9540    15.9660 c          1 M69       0.616800
     13 C09          6.6880     7.1180    21.9540 ca         1 M69      -0.118500
     14 O13          7.3850     5.0110    15.3870 o          1 M69      -0.575100
     15 C14          5.3960     6.7350    22.2700 ca         1 M69       0.030400
     16 CL16         4.9380     6.5600    23.9330 cl         1 M69      -0.108400
     17 O17          6.7980     8.4540    13.2850 oh         1 M69      -0.476100
     18 H23          7.5820     7.4950    18.1410 hc         1 M69       0.062700
     19 H27          7.0210     5.0690    17.8960 hc         1 M69       0.077450
     20 H26          5.3940     5.5050    17.3960 hc         1 M69       0.077450
     21 H28          8.0540     7.5570    20.3740 ha         1 M69       0.135500
     22 H29          4.0940     6.4370    19.1820 ha         1 M69       0.135500
     23 H31          3.4540     6.1890    21.5290 ha         1 M69       0.149500
     24 H32          7.3950     6.5460    13.4150 h4         1 M69       0.183000
     25 H24          4.6440     7.9680    17.4680 hc         1 M69       0.077450
     26 H25          5.7960     9.2100    17.9290 hc         1 M69       0.077450
     27 H30          7.4140     7.3070    22.7330 ha         1 M69       0.149500
     28 H17          6.4020     9.1350    13.9090 ho         1 M69       0.497000
@<TRIPOS>BOND
     1     1     2 1   
     2     1     3 1   
     3     1    11 1   
     4     1    18 1   
     5     2     4 ar  
     6     2     5 ar  
     7     3    12 1   
     8     3    19 1   
     9     3    20 1   
    10     4    13 ar  
    11     4    21 1   
    12     5     7 ar  
    13     5    22 1   
    14     6     8 1   
    15     6     9 2   
    16     6    11 1   
    17     7    15 ar  
    18     7    23 1   
    19     8    10 2   
    20     8    12 1   
    21    10    17 1   
    22    10    24 1   
    23    11    25 1   
    24    11    26 1   
    25    12    14 2   
    26    13    15 ar  
    27    13    27 1   
    28    15    16 1   
    29    17    28 1   
@<TRIPOS>SUBSTRUCTURE
     1 M69         1 TEMP              0 ****  ****    0 ROOT
