@<TRIPOS>MOLECULE
M69
   28    29     1     0     0
SMALL
No Charge or Current Charge


@<TRIPOS>ATOM
      1 C01          6.5930     7.1830    18.1840 c6         1 M69      -0.000400
      2 C02          6.1410     7.0150    19.6420 ca         1 M69      -0.081300
      3 C04          6.4920     5.8640    17.3890 c6         1 M69      -0.168900
      4 C05          7.0480     7.2700    20.6920 ca         1 M69      -0.096000
      5 C06          4.8250     6.6080    19.9540 ca         1 M69      -0.096000
      6 C07          6.2200     8.4640    15.9960 c          1 M69       0.616800
      7 C10          4.4260     6.4590    21.2940 ca         1 M69      -0.100500
      8 C11          6.6910     7.2760    15.2290 ce         1 M69      -0.511400
      9 O12          6.1570     9.5680    15.4690 o          1 M69      -0.575100
     10 C15          6.7940     7.2900    13.8770 c2         1 M69       0.196100
     11 C03          5.7810     8.2690    17.4470 c6         1 M69      -0.168900
     12 C08          6.9790     6.0040    15.9460 c          1 M69       0.616800
     13 C09          6.6460     7.1210    22.0320 ca         1 M69      -0.100500
     14 O13          7.5670     5.0830    15.3970 o          1 M69      -0.575100
     15 C14          5.3360     6.7160    22.3310 ca         1 M69       0.122000
     16 Cl16         4.8360     6.5290    24.0070 cl         1 M69      -0.200000
     17 O17          6.5330     8.3840    13.1450 oh         1 M69      -0.515100
     18 H23          7.6480     7.4940    18.1810 hc         1 M69       0.062700
     19 H27          7.0110     5.0300    17.8770 hc         1 M69       0.077450
     20 H26          5.4300     5.5950    17.3190 hc         1 M69       0.077450
     21 H28          8.0660     7.5850    20.4740 ha         1 M69       0.117500
     22 H29          4.1080     6.4060    19.1630 ha         1 M69       0.117500
     23 H31          3.4120     6.1460    21.5290 ha         1 M69       0.131500
     24 H32          7.1040     6.4150    13.2920 h4         1 M69       0.233000
     25 H24          4.7370     7.9360    17.3970 hc         1 M69       0.077450
     26 H25          5.7870     9.2350    17.9680 hc         1 M69       0.077450
     27 H30          7.3500     7.3190    22.8360 ha         1 M69       0.131500
     28 H17          6.3420     9.0950    13.8100 ho         1 M69       0.536000
@<TRIPOS>BOND
     1     1     2 1   
     2     1     3 1   
     3     1    11 1   
     4     1    18 1   
     5     2     4 ar  
     6     2     5 ar  
     7     3    12 1   
     8     3    19 1   
     9     3    20 1   
    10     4    13 ar  
    11     4    21 1   
    12     5     7 ar  
    13     5    22 1   
    14     6     8 1   
    15     6     9 2   
    16     6    11 1   
    17     7    15 ar  
    18     7    23 1   
    19     8    10 2   
    20     8    12 1   
    21    10    17 1   
    22    10    24 1   
    23    11    25 1   
    24    11    26 1   
    25    12    14 2   
    26    13    15 ar  
    27    13    27 1   
    28    15    16 1   
    29    17    28 1   
@<TRIPOS>SUBSTRUCTURE
     1 M69         1 TEMP              0 ****  ****    0 ROOT
