@<TRIPOS>MOLECULE
M6A
  105   108     1     0     0
SMALL
bcc


@<TRIPOS>ATOM
      1 C19        -11.2810    -1.6840     0.0210 c3         1 M6A       0.108300
      2 N5         -10.7510    -0.6010     0.8150 ns         1 M6A      -0.586900
      3 C18         -9.4310    -0.3640     0.8900 c          1 M6A       0.800100
      4 O5          -8.6040    -1.0460     0.2930 o          1 M6A      -0.640100
      5 N4          -9.0970     0.7130     1.6870 ns         1 M6A      -0.569400
      6 C17         -7.8280     1.2290     1.9720 c2         1 M6A       0.709800
      7 N3          -7.6620     2.3450     2.5750 n2         1 M6A      -0.901100
      8 N2          -6.7750     0.4610     1.6080 nu         1 M6A      -0.856200
      9 C16         -5.4320     0.9830     1.6640 c3         1 M6A       0.211800
     10 C15         -4.4600    -0.1110     1.2330 c3         1 M6A       0.105000
     11 N1          -3.0930     0.3410     1.1830 ns         1 M6A      -0.566900
     12 C14         -2.6160     1.0500     0.1440 c          1 M6A       0.758100
     13 O4          -3.2760     1.3710    -0.8260 o          1 M6A      -0.606000
     14 O3          -1.3290     1.3520     0.3190 os         1 M6A      -0.433900
     15 C3          -0.6500     2.1010    -0.6990 c3         1 M6A       0.192100
     16 C4           0.4590     2.8900     0.0350 c3         1 M6A      -0.042700
     17 C29          0.7680     4.2020    -0.6880 c3         1 M6A      -0.082100
     18 C2          -0.3320     1.2110    -1.9200 c3         1 M6A      -0.122700
     19 C28          0.1310     2.0220    -3.1270 c3         1 M6A      -0.071100
     20 C1           0.4730    -0.0380    -1.6130 c          1 M6A       0.678100
     21 O1           0.3480    -0.6710    -0.5950 o          1 M6A      -0.552000
     22 O2           1.2110    -0.4270    -2.6470 os         1 M6A      -0.421900
     23 C13          1.7440    -1.7540    -2.8250 c3         1 M6A       0.146100
     24 C26          0.8530    -2.8820    -2.3030 c3         1 M6A      -0.098400
     25 C27         -0.5880    -2.8070    -2.7950 c3         1 M6A      -0.088100
     26 C12          3.2610    -1.8680    -2.4820 c3         1 M6A       0.169800
     27 O10          3.9800    -0.9310    -3.2630 oh         1 M6A      -0.592800
     28 C33          3.6900    -3.2820    -2.9200 c3         1 M6A      -0.136100
     29 C11          5.0300    -2.1450    -0.5550 c5         1 M6A       0.154100
     30 C10          5.7340    -0.9150     0.0000 c5         1 M6A      -0.121700
     31 C32          6.3480    -0.0330    -1.0790 c3         1 M6A      -0.083100
     32 O9           4.9320    -3.1220     0.4680 os         1 M6A      -0.444600
     33 C23          4.5710    -2.6450     1.7570 c6         1 M6A       0.374600
     34 C24          5.7560    -2.8250     2.7060 c3         1 M6A      -0.106600
     35 C25          3.3880    -3.4780     2.2380 c3         1 M6A      -0.106600
     36 O8           4.1300    -1.3050     1.7580 os         1 M6A      -0.461600
     37 C9           4.5580    -0.3340     0.7870 c5         1 M6A       0.185800
     38 C8           4.8090     0.9810     1.5330 c3         1 M6A      -0.036700
     39 C31          5.8670     0.7980     2.6240 c3         1 M6A      -0.087100
     40 C7           3.5510     1.6160     2.1580 c3         1 M6A      -0.103400
     41 C6           2.7070     2.6800     1.3900 c3         1 M6A       0.133800
     42 O7           3.5400     3.5790     0.6860 oh         1 M6A      -0.583800
     43 C30          1.9230     3.4320     2.4770 c3         1 M6A      -0.128100
     44 C5           1.7070     2.0560     0.3680 c3         1 M6A       0.180100
     45 O6           2.2500     1.7810    -0.8940 os         1 M6A      -0.420600
     46 C20          3.4210     1.0160    -1.0710 c3         1 M6A       0.152400
     47 C21          3.4370    -0.2910    -0.2690 c5         1 M6A      -0.106700
     48 C22          3.6050    -1.6670    -0.9910 c5         1 M6A      -0.065700
     49 H1         -10.9200    -2.6560     0.3590 h1         1 M6A       0.043367
     50 H2         -12.3630    -1.6710     0.1160 h1         1 M6A       0.043367
     51 H3         -11.0310    -1.5720    -1.0340 h1         1 M6A       0.043367
     52 H4         -11.3930    -0.0680     1.3750 hn         1 M6A       0.314500
     53 H5          -9.8580     1.2700     2.0450 hn         1 M6A       0.311500
     54 H6          -8.5450     2.7850     2.7990 hn         1 M6A       0.378400
     55 H7          -6.9730    -0.2850     0.9550 hn         1 M6A       0.467800
     56 H8          -5.3160     1.8590     1.0180 h1         1 M6A       0.059200
     57 H9          -5.1960     1.3020     2.6810 h1         1 M6A       0.059200
     58 H10         -4.5070    -0.9450     1.9330 h1         1 M6A       0.058700
     59 H11         -4.7500    -0.5010     0.2540 h1         1 M6A       0.058700
     60 H12         -2.4850     0.1330     1.9580 hn         1 M6A       0.333500
     61 H13         -1.3440     2.8570    -1.0800 h1         1 M6A       0.063700
     62 H14         -0.0200     3.1620     0.9780 hc         1 M6A       0.060700
     63 H15         -0.1550     4.7580    -0.8630 hc         1 M6A       0.042367
     64 H16          1.4200     4.8330    -0.0890 hc         1 M6A       0.042367
     65 H17          1.2490     4.0520    -1.6510 hc         1 M6A       0.042367
     66 H18         -1.3080     0.8000    -2.2140 hc         1 M6A       0.082700
     67 H19          1.1570     2.3660    -3.0370 hc         1 M6A       0.045700
     68 H20          0.0430     1.4400    -4.0430 hc         1 M6A       0.045700
     69 H21         -0.5090     2.8990    -3.2430 hc         1 M6A       0.045700
     70 H22          1.7130    -1.8490    -3.9180 h1         1 M6A       0.051700
     71 H23          1.2760    -3.8070    -2.6960 hc         1 M6A       0.057700
     72 H24          0.8830    -2.9730    -1.2180 hc         1 M6A       0.057700
     73 H25         -1.1220    -3.7150    -2.5150 hc         1 M6A       0.037033
     74 H26         -1.1480    -1.9710    -2.3770 hc         1 M6A       0.037033
     75 H27         -0.6310    -2.7270    -3.8830 hc         1 M6A       0.037033
     76 H28          3.9210    -1.1900    -4.1890 ho         1 M6A       0.403000
     77 H29          3.2240    -3.5520    -3.8700 hc         1 M6A       0.047033
     78 H30          4.7680    -3.3210    -3.0720 hc         1 M6A       0.047033
     79 H31          3.4320    -4.0500    -2.1920 hc         1 M6A       0.047033
     80 H32          5.6010    -2.6170    -1.3550 h1         1 M6A       0.086700
     81 H33          6.5570    -1.2200     0.6510 hc         1 M6A       0.067700
     82 H34          5.6820     0.1640    -1.9140 hc         1 M6A       0.043367
     83 H35          6.6870     0.9220    -0.6780 hc         1 M6A       0.043367
     84 H36          7.2240    -0.5410    -1.4860 hc         1 M6A       0.043367
     85 H37          5.4810    -2.5170     3.7160 hc         1 M6A       0.046367
     86 H38          6.0600    -3.8720     2.7440 hc         1 M6A       0.046367
     87 H39          6.6190    -2.2350     2.4020 hc         1 M6A       0.046367
     88 H40          2.5340    -3.3610     1.5690 hc         1 M6A       0.046367
     89 H41          3.6520    -4.5350     2.2720 hc         1 M6A       0.046367
     90 H42          3.0830    -3.1780     3.2410 hc         1 M6A       0.046367
     91 H43          2.4990    -0.3440     0.2770 hc         1 M6A       0.088700
     92 H44          5.2320     1.6900     0.8180 hc         1 M6A       0.063700
     93 H45          6.7790     0.3340     2.2450 hc         1 M6A       0.034700
     94 H46          6.1480     1.7690     3.0350 hc         1 M6A       0.034700
     95 H47          5.4990     0.1860     3.4470 hc         1 M6A       0.034700
     96 H48          2.8790     0.8400     2.5370 hc         1 M6A       0.049700
     97 H49          3.8980     2.1330     3.0580 hc         1 M6A       0.049700
     98 H50          4.1300     4.0000     1.3210 ho         1 M6A       0.396000
     99 H51          2.6030     3.8070     3.2440 hc         1 M6A       0.042367
    100 H52          1.3830     4.2900     2.0770 hc         1 M6A       0.042367
    101 H53          1.2020     2.7800     2.9740 hc         1 M6A       0.042367
    102 H54          1.3490     1.1400     0.8600 h1         1 M6A       0.057700
    103 H55          3.4600     0.8290    -2.1380 h1         1 M6A       0.065700
    104 H56          4.2890     1.6350    -0.8410 h1         1 M6A       0.065700
    105 H57          2.9110    -2.3500    -0.4960 hc         1 M6A       0.072700
@<TRIPOS>BOND
     1     1     2 1   
     2     1    49 1   
     3     1    50 1   
     4     1    51 1   
     5     2     3 1   
     6     2    52 1   
     7     3     4 2   
     8     3     5 1   
     9     5     6 1   
    10     5    53 1   
    11     6     7 2   
    12     6     8 1   
    13     7    54 1   
    14     8     9 1   
    15     8    55 1   
    16     9    10 1   
    17     9    56 1   
    18     9    57 1   
    19    10    11 1   
    20    10    58 1   
    21    10    59 1   
    22    11    12 1   
    23    11    60 1   
    24    12    13 2   
    25    12    14 1   
    26    14    15 1   
    27    15    16 1   
    28    15    18 1   
    29    15    61 1   
    30    16    17 1   
    31    16    44 1   
    32    16    62 1   
    33    17    63 1   
    34    17    64 1   
    35    17    65 1   
    36    18    19 1   
    37    18    20 1   
    38    18    66 1   
    39    19    67 1   
    40    19    68 1   
    41    19    69 1   
    42    20    21 2   
    43    20    22 1   
    44    22    23 1   
    45    23    24 1   
    46    23    26 1   
    47    23    70 1   
    48    24    25 1   
    49    24    71 1   
    50    24    72 1   
    51    25    73 1   
    52    25    74 1   
    53    25    75 1   
    54    26    27 1   
    55    26    28 1   
    56    26    48 1   
    57    27    76 1   
    58    28    77 1   
    59    28    78 1   
    60    28    79 1   
    61    29    30 1   
    62    29    32 1   
    63    29    48 1   
    64    29    80 1   
    65    30    31 1   
    66    30    37 1   
    67    30    81 1   
    68    31    82 1   
    69    31    83 1   
    70    31    84 1   
    71    32    33 1   
    72    33    34 1   
    73    33    35 1   
    74    33    36 1   
    75    34    85 1   
    76    34    86 1   
    77    34    87 1   
    78    35    88 1   
    79    35    89 1   
    80    35    90 1   
    81    36    37 1   
    82    37    38 1   
    83    37    47 1   
    84    38    39 1   
    85    38    40 1   
    86    38    92 1   
    87    39    93 1   
    88    39    94 1   
    89    39    95 1   
    90    40    41 1   
    91    40    96 1   
    92    40    97 1   
    93    41    42 1   
    94    41    43 1   
    95    41    44 1   
    96    42    98 1   
    97    43    99 1   
    98    43   100 1   
    99    43   101 1   
   100    44    45 1   
   101    44   102 1   
   102    45    46 1   
   103    46    47 1   
   104    46   103 1   
   105    46   104 1   
   106    47    48 1   
   107    47    91 1   
   108    48   105 1   
@<TRIPOS>SUBSTRUCTURE
     1 M6A         1 TEMP              0 ****  ****    0 ROOT
