@<TRIPOS>MOLECULE
M6A
  105   108     1     0     0
SMALL
No Charge or Current Charge


@<TRIPOS>ATOM
      1 C19        -11.0830    -2.2990     0.4430 c3         1 M6A       0.108300
      2 N5         -10.5640    -1.1020     1.1090 ns         1 M6A      -0.519900
      3 C18         -9.2660    -0.6810     1.0200 c          1 M6A       0.666100
      4 O5          -8.4210    -1.2760     0.3700 o          1 M6A      -0.640100
      5 N4          -9.0320     0.4610     1.7310 ns         1 M6A      -0.502400
      6 C17         -7.8740     1.1820     1.8630 c2         1 M6A       0.709800
      7 N3          -7.8180     2.3430     2.3550 n2         1 M6A      -0.901100
      8 N2          -6.7500     0.4750     1.6140 nu         1 M6A      -0.911400
      9 C16         -5.4140     1.0700     1.4180 c3         1 M6A       0.211800
     10 C15         -4.3440    -0.0130     1.1340 c3         1 M6A       0.105000
     11 N1          -2.9900     0.5340     0.9790 ns         1 M6A      -0.499900
     12 C14         -2.5750     1.3040    -0.0670 c          1 M6A       0.642100
     13 O4          -3.2740     1.6420    -1.0080 o          1 M6A      -0.557000
     14 O3          -1.2750     1.6510     0.1380 os         1 M6A      -0.457100
     15 C3          -0.5700     2.3960    -0.8770 c3         1 M6A       0.215300
     16 C4           0.5930     3.1650    -0.1390 c3         1 M6A      -0.042700
     17 C29          1.0260     4.4570    -0.8950 c3         1 M6A      -0.082100
     18 C2          -0.2610     1.4630    -2.1160 c3         1 M6A      -0.122700
     19 C28          0.3840     2.2130    -3.3200 c3         1 M6A      -0.071100
     20 C1           0.4100     0.0970    -1.7850 c          1 M6A       0.629100
     21 O1           0.3260    -0.4520    -0.6980 o          1 M6A      -0.503000
     22 O2           1.0160    -0.4630    -2.8930 os         1 M6A      -0.445100
     23 C13          1.5500    -1.8230    -2.9260 c3         1 M6A       0.169300
     24 C26          0.5860    -2.8800    -2.2890 c3         1 M6A      -0.098400
     25 C27         -0.8770    -2.7990    -2.7840 c3         1 M6A      -0.088100
     26 C12          3.1020    -1.9250    -2.5620 c3         1 M6A       0.193000
     27 O10          3.8050    -1.0110    -3.4030 oh         1 M6A      -0.655000
     28 C33          3.5800    -3.3310    -3.0380 c3         1 M6A      -0.136100
     29 C11          4.9540    -2.2240    -0.5730 c5         1 M6A       0.177300
     30 C10          5.7170    -1.0400     0.1040 c5         1 M6A      -0.121700
     31 C32          6.5140    -0.1690    -0.9080 c3         1 M6A      -0.083100
     32 O9           4.7320    -3.2160     0.4660 os         1 M6A      -0.491000
     33 C23          4.3230    -2.7740     1.7830 c6         1 M6A       0.421000
     34 C24          5.4670    -3.0480     2.7990 c3         1 M6A      -0.106600
     35 C25          3.0710    -3.5930     2.1790 c3         1 M6A      -0.106600
     36 O8           3.9510    -1.3750     1.8320 os         1 M6A      -0.508000
     37 C9           4.5330    -0.3890     0.9180 c5         1 M6A       0.209000
     38 C8           4.8430     0.9220     1.7350 c3         1 M6A      -0.036700
     39 C31          5.8200     0.6290     2.9070 c3         1 M6A      -0.087100
     40 C7           3.5700     1.7060     2.2680 c3         1 M6A      -0.103400
     41 C6           2.8180     2.8340     1.4170 c3         1 M6A       0.157000
     42 O7           3.8090     3.6920     0.8290 oh         1 M6A      -0.706000
     43 C30          2.0600     3.7110     2.4580 c3         1 M6A      -0.128100
     44 C5           1.8000     2.2580     0.3100 c3         1 M6A       0.203300
     45 O6           2.4440     1.9540    -0.9590 os         1 M6A      -0.467000
     46 C20          3.6000     1.0790    -1.0440 c3         1 M6A       0.175600
     47 C21          3.4600    -0.2890    -0.2510 c5         1 M6A      -0.106700
     48 C22          3.5240    -1.7050    -1.0420 c5         1 M6A      -0.065700
     49 H1         -10.5390    -3.1840     0.7970 h1         1 M6A       0.043367
     50 H2         -12.1500    -2.4140     0.6730 h1         1 M6A       0.043367
     51 H3         -10.9560    -2.2030    -0.6430 h1         1 M6A       0.043367
     52 H4         -11.2000    -0.5510     1.6730 hn         1 M6A       0.314500
     53 H5          -9.8340     0.8460     2.2000 hn         1 M6A       0.311500
     54 H6          -8.7760     2.6690     2.5310 hn         1 M6A       0.378400
     55 H7          -6.9660    -0.3730     1.0840 hn         1 M6A       0.523000
     56 H8          -5.4420     1.7790     0.5790 h1         1 M6A       0.059200
     57 H9          -5.1160     1.6290     2.3160 h1         1 M6A       0.059200
     58 H10         -4.3330    -0.7330     1.9620 h1         1 M6A       0.058700
     59 H11         -4.6090    -0.5560     0.2170 h1         1 M6A       0.058700
     60 H12         -2.2920     0.3370     1.6850 hn         1 M6A       0.333500
     61 H13         -1.2400     3.1840    -1.2480 h1         1 M6A       0.063700
     62 H14          0.1030     3.5260     0.7720 hc         1 M6A       0.060700
     63 H15          0.1510     5.0620    -1.1590 hc         1 M6A       0.042367
     64 H16          1.6760     5.0790    -0.2710 hc         1 M6A       0.042367
     65 H17          1.5740     4.2350    -1.8160 hc         1 M6A       0.042367
     66 H18         -1.2280     1.1610    -2.5290 hc         1 M6A       0.082700
     67 H19          1.4580     2.3730    -3.1880 hc         1 M6A       0.045700
     68 H20          0.2520     1.6400    -4.2460 hc         1 M6A       0.045700
     69 H21         -0.0950     3.1870    -3.4720 hc         1 M6A       0.045700
     70 H22          1.5270    -2.0910    -3.9910 h1         1 M6A       0.051700
     71 H23          0.9490    -3.8810    -2.5470 hc         1 M6A       0.057700
     72 H24          0.6130    -2.8410    -1.1950 hc         1 M6A       0.057700
     73 H25         -1.4630    -3.6290    -2.3710 hc         1 M6A       0.037033
     74 H26         -1.3590    -1.8650    -2.4750 hc         1 M6A       0.037033
     75 H27         -0.9200    -2.8640    -3.8780 hc         1 M6A       0.037033
     76 H28          3.1360    -0.3610    -3.7110 ho         1 M6A       0.442000
     77 H29          3.1510    -3.5940    -4.0130 hc         1 M6A       0.047033
     78 H30          4.6680    -3.3730    -3.1620 hc         1 M6A       0.047033
     79 H31          3.2930    -4.1110    -2.3220 hc         1 M6A       0.047033
     80 H32          5.5520    -2.6780    -1.3720 h1         1 M6A       0.086700
     81 H33          6.4980    -1.4100     0.7690 hc         1 M6A       0.067700
     82 H34          5.9360     0.0890    -1.8000 hc         1 M6A       0.043367
     83 H35          6.8790     0.7580    -0.4500 hc         1 M6A       0.043367
     84 H36          7.3940    -0.7170    -1.2640 hc         1 M6A       0.043367
     85 H37          5.1240    -2.8740     3.8250 hc         1 M6A       0.046367
     86 H38          5.8000    -4.0900     2.7380 hc         1 M6A       0.046367
     87 H39          6.3430    -2.4130     2.6460 hc         1 M6A       0.046367
     88 H40          2.2380    -3.4040     1.4930 hc         1 M6A       0.046367
     89 H41          3.2810    -4.6680     2.1630 hc         1 M6A       0.046367
     90 H42          2.7330    -3.3340     3.1890 hc         1 M6A       0.046367
     91 H43          2.4980    -0.2570     0.2470 hc         1 M6A       0.088700
     92 H44          5.4050     1.6170     1.1060 hc         1 M6A       0.063700
     93 H45          6.7300     0.1360     2.5490 hc         1 M6A       0.034700
     94 H46          6.1270     1.5600     3.3980 hc         1 M6A       0.034700
     95 H47          5.3520    -0.0140     3.6610 hc         1 M6A       0.034700
     96 H48          2.8240     0.9700     2.5910 hc         1 M6A       0.049700
     97 H49          3.8890     2.1800     3.2030 hc         1 M6A       0.049700
     98 H50          4.2790     4.1380     1.5660 ho         1 M6A       0.495000
     99 H51          2.7240     4.0580     3.2600 hc         1 M6A       0.042367
    100 H52          1.6350     4.6140     2.0060 hc         1 M6A       0.042367
    101 H53          1.2460     3.1430     2.9250 hc         1 M6A       0.042367
    102 H54          1.3420     1.3670     0.7520 h1         1 M6A       0.057700
    103 H55          3.7970     0.8920    -2.0970 h1         1 M6A       0.065700
    104 H56          4.4840     1.6320    -0.7210 h1         1 M6A       0.065700
    105 H57          2.7900    -2.3450    -0.5440 hc         1 M6A       0.072700
@<TRIPOS>BOND
     1     1     2 1   
     2     1    49 1   
     3     1    50 1   
     4     1    51 1   
     5     2     3 1   
     6     2    52 1   
     7     3     4 2   
     8     3     5 1   
     9     5     6 1   
    10     5    53 1   
    11     6     7 2   
    12     6     8 1   
    13     7    54 1   
    14     8     9 1   
    15     8    55 1   
    16     9    10 1   
    17     9    56 1   
    18     9    57 1   
    19    10    11 1   
    20    10    58 1   
    21    10    59 1   
    22    11    12 1   
    23    11    60 1   
    24    12    13 2   
    25    12    14 1   
    26    14    15 1   
    27    15    16 1   
    28    15    18 1   
    29    15    61 1   
    30    16    17 1   
    31    16    44 1   
    32    16    62 1   
    33    17    63 1   
    34    17    64 1   
    35    17    65 1   
    36    18    19 1   
    37    18    20 1   
    38    18    66 1   
    39    19    67 1   
    40    19    68 1   
    41    19    69 1   
    42    20    21 2   
    43    20    22 1   
    44    22    23 1   
    45    23    24 1   
    46    23    26 1   
    47    23    70 1   
    48    24    25 1   
    49    24    71 1   
    50    24    72 1   
    51    25    73 1   
    52    25    74 1   
    53    25    75 1   
    54    26    27 1   
    55    26    28 1   
    56    26    48 1   
    57    27    76 1   
    58    28    77 1   
    59    28    78 1   
    60    28    79 1   
    61    29    30 1   
    62    29    32 1   
    63    29    48 1   
    64    29    80 1   
    65    30    31 1   
    66    30    37 1   
    67    30    81 1   
    68    31    82 1   
    69    31    83 1   
    70    31    84 1   
    71    32    33 1   
    72    33    34 1   
    73    33    35 1   
    74    33    36 1   
    75    34    85 1   
    76    34    86 1   
    77    34    87 1   
    78    35    88 1   
    79    35    89 1   
    80    35    90 1   
    81    36    37 1   
    82    37    38 1   
    83    37    47 1   
    84    38    39 1   
    85    38    40 1   
    86    38    92 1   
    87    39    93 1   
    88    39    94 1   
    89    39    95 1   
    90    40    41 1   
    91    40    96 1   
    92    40    97 1   
    93    41    42 1   
    94    41    43 1   
    95    41    44 1   
    96    42    98 1   
    97    43    99 1   
    98    43   100 1   
    99    43   101 1   
   100    44    45 1   
   101    44   102 1   
   102    45    46 1   
   103    46    47 1   
   104    46   103 1   
   105    46   104 1   
   106    47    48 1   
   107    47    91 1   
   108    48   105 1   
@<TRIPOS>SUBSTRUCTURE
     1 M6A         1 TEMP              0 ****  ****    0 ROOT
