@<TRIPOS>MOLECULE
M6B
  108   109     1     0     0
SMALL
No Charge or Current Charge


@<TRIPOS>ATOM
      1 C20          6.7720    -4.8820     2.8930 c3         1 M6B       0.108300
      2 N5           7.5100    -3.6270     2.7290 ns         1 M6B      -0.520900
      3 C19          7.0480    -2.5590     2.0100 c          1 M6B       0.667100
      4 O5           5.9700    -2.5640     1.4380 o          1 M6B      -0.642100
      5 N4           7.9200    -1.5090     2.0080 ns         1 M6B      -0.502400
      6 C18          7.8130    -0.2910     1.3890 c2         1 M6B       0.714800
      7 N3           8.7700     0.5220     1.2580 n2         1 M6B      -0.906100
      8 N2           6.5460     0.0730     1.1050 nu         1 M6B      -0.922400
      9 C17          6.1740     1.1780     0.2170 c3         1 M6B       0.247800
     10 C16          4.6460     1.2170     0.0370 c3         1 M6B      -0.117400
     11 C15          4.1900     2.3560    -0.8950 c3         1 M6B       0.124000
     12 N1           2.7370     2.3780    -1.0500 ns         1 M6B      -0.502900
     13 C14          1.8660     2.8860    -0.1300 c          1 M6B       0.650100
     14 O4           2.1880     3.4770     0.8880 o          1 M6B      -0.536000
     15 O3           0.5920     2.6750    -0.5730 os         1 M6B      -0.480100
     16 C3          -0.5120     3.1800     0.2090 c3         1 M6B       0.224300
     17 C4          -1.6090     3.7260    -0.7930 c3         1 M6B      -0.052700
     18 C30         -2.2840     5.0240    -0.2590 c3         1 M6B      -0.080100
     19 C2          -0.8290     2.2060     1.4090 c3         1 M6B      -0.112700
     20 C29         -2.2940     2.1530     1.8820 c3         1 M6B      -0.083100
     21 C1          -0.1320     0.8170     1.3340 c          1 M6B       0.607100
     22 O1           0.9350     0.6350     1.9060 o          1 M6B      -0.508000
     23 O2          -0.9760    -0.2360     1.0200 os         1 M6B      -0.417100
     24 C13         -0.4060    -1.5790     0.9230 c3         1 M6B       0.159300
     25 C27          0.1610    -1.7820    -0.5170 c3         1 M6B      -0.090400
     26 C28          1.4660    -1.0220    -0.8270 c3         1 M6B      -0.094100
     27 C12         -1.4230    -2.6840     1.4590 c3         1 M6B       0.190000
     28 O10         -1.6380    -2.3980     2.8530 oh         1 M6B      -0.717000
     29 C34         -0.6950    -4.0600     1.5030 c3         1 M6B      -0.128100
     30 C11         -2.8070    -2.8830     0.6610 c6         1 M6B       0.215300
     31 C10         -3.9510    -1.8020     0.7620 c6         1 M6B      -0.103700
     32 C33         -4.1160    -1.0720     2.1290 c3         1 M6B      -0.073100
     33 O9          -2.4240    -3.0640    -0.7290 os         1 M6B      -0.500000
     34 C24         -3.4550    -3.0180    -1.7310 c6         1 M6B       0.424000
     35 C25         -4.4130    -4.2310    -1.5790 c3         1 M6B      -0.110100
     36 C26         -2.7490    -3.0430    -3.1060 c3         1 M6B      -0.110100
     37 O8          -4.2090    -1.7890    -1.6510 os         1 M6B      -0.490000
     38 C9          -3.9210    -0.9230    -0.5210 c6         1 M6B       0.185300
     39 C8          -4.9740     0.2430    -0.5660 c3         1 M6B      -0.053700
     40 C32         -6.4450    -0.2660    -0.5260 c3         1 M6B      -0.089100
     41 C7          -4.7860     1.2550    -1.7580 c3         1 M6B      -0.092400
     42 C6          -4.1230     2.6670    -1.4820 c3         1 M6B       0.190000
     43 O7          -4.5840     3.1400    -0.2110 oh         1 M6B      -0.715000
     44 C31         -4.7300     3.6540    -2.5220 c3         1 M6B      -0.133100
     45 C5          -2.5210     2.7170    -1.6180 c3         1 M6B       0.199300
     46 O6          -1.9380     1.4010    -1.5890 os         1 M6B      -0.419000
     47 C21         -1.0360     1.1020    -2.7260 c3         1 M6B       0.243700
     48 C22         -1.7120     0.8260    -4.0480 c1         1 M6B      -0.182100
     49 C23         -2.2840     0.6060    -5.0920 c1         1 M6B      -0.235000
     50 H1           5.8100    -4.6840     3.3830 h1         1 M6B       0.043033
     51 H2           6.5930    -5.3370     1.9100 h1         1 M6B       0.043033
     52 H3           7.3570    -5.5750     3.5110 h1         1 M6B       0.043033
     53 H4           8.4140    -3.5400     3.1740 hn         1 M6B       0.315500
     54 H5           8.7800    -1.6620     2.5070 hn         1 M6B       0.312500
     55 H6           9.6290     0.0710     1.5940 hn         1 M6B       0.378400
     56 H7           5.9210    -0.7360     1.1230 hn         1 M6B       0.527000
     57 H8           6.5150     2.1350     0.6370 h1         1 M6B       0.051700
     58 H9           6.6500     1.0490    -0.7660 h1         1 M6B       0.051700
     59 H10          4.3050     0.2600    -0.3760 hc         1 M6B       0.053200
     60 H11          4.1700     1.3380     1.0180 hc         1 M6B       0.053200
     61 H12          4.5220     3.3220    -0.4920 h1         1 M6B       0.055700
     62 H13          4.6450     2.2260    -1.8860 h1         1 M6B       0.055700
     63 H14          2.3210     1.9460    -1.8630 hn         1 M6B       0.319500
     64 H15         -0.1690     4.1010     0.7000 h1         1 M6B       0.058700
     65 H16         -0.9850     4.1500    -1.5900 hc         1 M6B       0.037700
     66 H17         -1.5220     5.7560     0.0350 hc         1 M6B       0.041033
     67 H18         -2.8920     5.5070    -1.0280 hc         1 M6B       0.041033
     68 H19         -2.9090     4.8450     0.6200 hc         1 M6B       0.041033
     69 H20         -0.3040     2.6890     2.2420 hc         1 M6B       0.077700
     70 H21         -2.9130     1.6360     1.1460 hc         1 M6B       0.049700
     71 H22         -2.3640     1.6180     2.8360 hc         1 M6B       0.049700
     72 H23         -2.6980     3.1560     2.0480 hc         1 M6B       0.049700
     73 H24          0.4560    -1.6700     1.5980 h1         1 M6B       0.054700
     74 H25          0.3650    -2.8420    -0.6920 hc         1 M6B       0.062200
     75 H26         -0.5980    -1.4940    -1.2480 hc         1 M6B       0.062200
     76 H27          1.8480    -1.3070    -1.8140 hc         1 M6B       0.035700
     77 H28          1.2980     0.0580    -0.8350 hc         1 M6B       0.035700
     78 H29          2.2380    -1.2520    -0.0820 hc         1 M6B       0.035700
     79 H30         -1.6780    -1.4200     2.9250 ho         1 M6B       0.506000
     80 H31          0.2840    -3.9780     1.9900 hc         1 M6B       0.047033
     81 H32         -1.2860    -4.7920     2.0670 hc         1 M6B       0.047033
     82 H33         -0.5430    -4.4760     0.5010 hc         1 M6B       0.047033
     83 H34         -3.2390    -3.8300     1.0180 h1         1 M6B       0.043700
     84 H35         -4.8860    -2.3740     0.7100 hc         1 M6B       0.044700
     85 H36         -3.2880    -0.3930     2.3350 hc         1 M6B       0.042033
     86 H37         -5.0410    -0.4860     2.1730 hc         1 M6B       0.042033
     87 H38         -4.1830    -1.7930     2.9520 hc         1 M6B       0.042033
     88 H39         -5.1200    -4.2760    -2.4150 hc         1 M6B       0.046033
     89 H40         -3.8520    -5.1730    -1.5690 hc         1 M6B       0.046033
     90 H41         -5.0030    -4.1860    -0.6580 hc         1 M6B       0.046033
     91 H42         -2.0700    -2.1900    -3.2130 hc         1 M6B       0.046033
     92 H43         -2.1610    -3.9590    -3.2310 hc         1 M6B       0.046033
     93 H44         -3.4760    -2.9970    -3.9240 hc         1 M6B       0.046033
     94 H45         -2.9140    -0.5040    -0.6320 h1         1 M6B       0.100700
     95 H46         -4.8550     0.8040     0.3610 hc         1 M6B       0.054700
     96 H47         -6.6290    -0.9060     0.3440 hc         1 M6B       0.031367
     97 H48         -7.1430     0.5780    -0.4580 hc         1 M6B       0.031367
     98 H49         -6.6910    -0.8370    -1.4290 hc         1 M6B       0.031367
     99 H50         -4.2510     0.7580    -2.5750 hc         1 M6B       0.052200
    100 H51         -5.7800     1.4370    -2.1850 hc         1 M6B       0.052200
    101 H52         -5.5640     3.1610    -0.2530 ho         1 M6B       0.502000
    102 H53         -5.8190     3.7360    -2.4140 hc         1 M6B       0.041700
    103 H54         -4.3180     4.6630    -2.4260 hc         1 M6B       0.041700
    104 H55         -4.5240     3.3110    -3.5440 hc         1 M6B       0.041700
    105 H56         -2.3990     3.0850    -2.6460 h1         1 M6B       0.033700
    106 H57         -0.3280     1.9280    -2.8750 h1         1 M6B       0.064700
    107 H58         -0.4260     0.2250    -2.4930 h1         1 M6B       0.064700
    108 H59         -2.7990     0.4030    -6.0100 ha         1 M6B       0.252000
@<TRIPOS>BOND
     1     1     2 1   
     2     1    50 1   
     3     1    51 1   
     4     1    52 1   
     5     2     3 1   
     6     2    53 1   
     7     3     4 2   
     8     3     5 1   
     9     5     6 1   
    10     5    54 1   
    11     6     7 2   
    12     6     8 1   
    13     7    55 1   
    14     8     9 1   
    15     8    56 1   
    16     9    10 1   
    17     9    57 1   
    18     9    58 1   
    19    10    11 1   
    20    10    59 1   
    21    10    60 1   
    22    11    12 1   
    23    11    61 1   
    24    11    62 1   
    25    12    13 1   
    26    12    63 1   
    27    13    14 2   
    28    13    15 1   
    29    15    16 1   
    30    16    17 1   
    31    16    19 1   
    32    16    64 1   
    33    17    18 1   
    34    17    45 1   
    35    17    65 1   
    36    18    66 1   
    37    18    67 1   
    38    18    68 1   
    39    19    20 1   
    40    19    21 1   
    41    19    69 1   
    42    20    70 1   
    43    20    71 1   
    44    20    72 1   
    45    21    22 2   
    46    21    23 1   
    47    23    24 1   
    48    24    25 1   
    49    24    27 1   
    50    24    73 1   
    51    25    26 1   
    52    25    74 1   
    53    25    75 1   
    54    26    76 1   
    55    26    77 1   
    56    26    78 1   
    57    27    28 1   
    58    27    29 1   
    59    27    30 1   
    60    28    79 1   
    61    29    80 1   
    62    29    81 1   
    63    29    82 1   
    64    30    31 1   
    65    30    33 1   
    66    30    83 1   
    67    31    32 1   
    68    31    38 1   
    69    31    84 1   
    70    32    85 1   
    71    32    86 1   
    72    32    87 1   
    73    33    34 1   
    74    34    35 1   
    75    34    36 1   
    76    34    37 1   
    77    35    88 1   
    78    35    89 1   
    79    35    90 1   
    80    36    91 1   
    81    36    92 1   
    82    36    93 1   
    83    37    38 1   
    84    38    39 1   
    85    38    94 1   
    86    39    40 1   
    87    39    41 1   
    88    39    95 1   
    89    40    96 1   
    90    40    97 1   
    91    40    98 1   
    92    41    42 1   
    93    41    99 1   
    94    41   100 1   
    95    42    43 1   
    96    42    44 1   
    97    42    45 1   
    98    43   101 1   
    99    44   102 1   
   100    44   103 1   
   101    44   104 1   
   102    45    46 1   
   103    45   105 1   
   104    46    47 1   
   105    47    48 1   
   106    47   106 1   
   107    47   107 1   
   108    48    49 3   
   109    49   108 1   
@<TRIPOS>SUBSTRUCTURE
     1 M6B         1 TEMP              0 ****  ****    0 ROOT
