@<TRIPOS>MOLECULE
M6B
  108   109     1     0     0
SMALL
abcg2


@<TRIPOS>ATOM
      1 C20          8.7450    -4.7040    -1.4970 c3         1 M6B       0.108300
      2 N5           9.1080    -3.6000    -0.6410 ns         1 M6B      -0.520900
      3 C19          8.2810    -2.5590    -0.4460 c          1 M6B       0.667100
      4 O5           7.1810    -2.4850    -0.9840 o          1 M6B      -0.642100
      5 N4           8.7830    -1.5910     0.4010 ns         1 M6B      -0.502400
      6 C18          8.1810    -0.4050     0.8340 c2         1 M6B       0.714800
      7 N3           8.8030     0.4600     1.5440 n2         1 M6B      -0.906100
      8 N2           6.8880    -0.2280     0.4890 nu         1 M6B      -0.922400
      9 C17          6.2000     1.0060     0.7780 c3         1 M6B       0.247800
     10 C16          4.7400     0.8830     0.3780 c3         1 M6B      -0.117400
     11 C15          3.9710     2.1630     0.6610 c3         1 M6B       0.124000
     12 N1           2.6000     2.0130     0.2280 ns         1 M6B      -0.502900
     13 C14          1.6030     2.8000     0.6630 c          1 M6B       0.650100
     14 O4           1.7280     3.6990     1.4700 o          1 M6B      -0.536000
     15 O3           0.4480     2.4570     0.0740 os         1 M6B      -0.480100
     16 C3          -0.7330     3.2100     0.3680 c3         1 M6B       0.224300
     17 C4          -1.4440     3.5140    -0.9800 c3         1 M6B      -0.052700
     18 C30         -2.2280     4.8270    -0.8570 c3         1 M6B      -0.080100
     19 C2          -1.4110     2.6120     1.6410 c3         1 M6B      -0.112700
     20 C29         -2.9180     2.7620     1.7260 c3         1 M6B      -0.083100
     21 C1          -0.9120     1.2190     2.0060 c          1 M6B       0.607100
     22 O1           0.0920     1.0710     2.6630 o          1 M6B      -0.508000
     23 O2          -1.6810     0.2170     1.6120 os         1 M6B      -0.417100
     24 C13         -1.3290    -1.1290     1.9820 c3         1 M6B       0.159300
     25 C27         -0.5540    -1.7960     0.8520 c3         1 M6B      -0.090400
     26 C28          0.9070    -1.3750     0.7550 c3         1 M6B      -0.094100
     27 C12         -2.5830    -1.8680     2.5180 c3         1 M6B       0.190000
     28 O10         -3.1790    -1.0650     3.5160 oh         1 M6B      -0.717000
     29 C34         -2.0870    -3.1640     3.1800 c3         1 M6B      -0.128100
     30 C11         -3.7320    -2.2740     1.5410 c6         1 M6B       0.215300
     31 C10         -4.6370    -1.2440     0.8390 c6         1 M6B      -0.103700
     32 C33         -5.1860    -0.1480     1.7440 c3         1 M6B      -0.073100
     33 O9          -3.1410    -3.1590     0.6030 os         1 M6B      -0.500000
     34 C24         -3.5220    -3.1140    -0.7520 c6         1 M6B       0.424000
     35 C25         -4.8610    -3.8320    -0.9820 c3         1 M6B      -0.110100
     36 C26         -2.4430    -3.8710    -1.5180 c3         1 M6B      -0.110100
     37 O8          -3.5050    -1.8050    -1.2510 os         1 M6B      -0.490000
     38 C9          -3.9920    -0.7270    -0.4440 c6         1 M6B       0.185300
     39 C8          -4.9090     0.1480    -1.3020 c3         1 M6B      -0.053700
     40 C32         -6.0800    -0.6390    -1.8890 c3         1 M6B      -0.089100
     41 C7          -4.1830     0.9010    -2.4340 c3         1 M6B      -0.092400
     42 C6          -3.6130     2.3240    -2.1370 c3         1 M6B       0.190000
     43 O7          -4.3260     2.9320    -1.0830 oh         1 M6B      -0.715000
     44 C31         -3.8140     3.1430    -3.4220 c3         1 M6B      -0.133100
     45 C5          -2.0750     2.3500    -1.8280 c3         1 M6B       0.199300
     46 O6          -1.6180     1.1100    -1.3370 os         1 M6B      -0.419000
     47 C21         -0.5480     0.5490    -2.0480 c3         1 M6B       0.243700
     48 C22         -0.8860     0.1220    -3.4090 c1         1 M6B      -0.182100
     49 C23         -1.1270    -0.2390    -4.5300 c1         1 M6B      -0.235000
     50 H1           7.8500    -5.2180    -1.1430 h1         1 M6B       0.043033
     51 H2           8.5730    -4.3810    -2.5240 h1         1 M6B       0.043033
     52 H3           9.5670    -5.4130    -1.4970 h1         1 M6B       0.043033
     53 H4           9.9890    -3.6460    -0.1580 hn         1 M6B       0.315500
     54 H5           9.7230    -1.7230     0.7420 hn         1 M6B       0.312500
     55 H6           9.7520     0.1690     1.7440 hn         1 M6B       0.378400
     56 H7           6.5010    -0.8550    -0.2010 hn         1 M6B       0.527000
     57 H8           6.2770     1.2270     1.8450 h1         1 M6B       0.051700
     58 H9           6.6620     1.8510     0.2540 h1         1 M6B       0.051700
     59 H10          4.6750     0.6500    -0.6910 hc         1 M6B       0.053200
     60 H11          4.2760     0.0520     0.9160 hc         1 M6B       0.053200
     61 H12          3.9890     2.3770     1.7310 h1         1 M6B       0.055700
     62 H13          4.4530     3.0070     0.1570 h1         1 M6B       0.055700
     63 H14          2.4160     1.3760    -0.5300 hn         1 M6B       0.319500
     64 H15         -0.4120     4.2060     0.6780 h1         1 M6B       0.058700
     65 H16         -0.5770     3.8090    -1.5810 hc         1 M6B       0.037700
     66 H17         -1.5520     5.6040    -0.4960 hc         1 M6B       0.041033
     67 H18         -2.5960     5.1650    -1.8240 hc         1 M6B       0.041033
     68 H19         -3.0760     4.7780    -0.1830 hc         1 M6B       0.041033
     69 H20         -0.9980     3.2080     2.4580 hc         1 M6B       0.077700
     70 H21         -3.4430     2.2410     0.9350 hc         1 M6B       0.049700
     71 H22         -3.2720     2.3890     2.6870 hc         1 M6B       0.049700
     72 H23         -3.1950     3.8150     1.6730 hc         1 M6B       0.049700
     73 H24         -0.6630    -1.0730     2.8500 h1         1 M6B       0.054700
     74 H25         -0.5820    -2.8750     0.9960 hc         1 M6B       0.062200
     75 H26         -1.0680    -1.6110    -0.0910 hc         1 M6B       0.062200
     76 H27          1.4040    -1.9370    -0.0380 hc         1 M6B       0.035700
     77 H28          1.0330    -0.3180     0.5340 hc         1 M6B       0.035700
     78 H29          1.4400    -1.5780     1.6850 hc         1 M6B       0.035700
     79 H30         -2.6000    -1.0590     4.2860 ho         1 M6B       0.506000
     80 H31         -1.3420    -2.9380     3.9490 hc         1 M6B       0.047033
     81 H32         -2.9200    -3.6740     3.6650 hc         1 M6B       0.047033
     82 H33         -1.6310    -3.8620     2.4820 hc         1 M6B       0.047033
     83 H34         -4.4130    -2.8530     2.1850 h1         1 M6B       0.043700
     84 H35         -5.5220    -1.8210     0.5570 hc         1 M6B       0.044700
     85 H36         -4.4400     0.5940     2.0070 hc         1 M6B       0.042033
     86 H37         -6.0150     0.3610     1.2530 hc         1 M6B       0.042033
     87 H38         -5.5770    -0.5750     2.6660 hc         1 M6B       0.042033
     88 H39         -5.1020    -3.8380    -2.0460 hc         1 M6B       0.046033
     89 H40         -4.7810    -4.8690    -0.6540 hc         1 M6B       0.046033
     90 H41         -5.7030    -3.3820    -0.4600 hc         1 M6B       0.046033
     91 H42         -1.4640    -3.4120    -1.3790 hc         1 M6B       0.046033
     92 H43         -2.3900    -4.9080    -1.1880 hc         1 M6B       0.046033
     93 H44         -2.6700    -3.8710    -2.5840 hc         1 M6B       0.046033
     94 H45         -3.1310    -0.1250    -0.1650 h1         1 M6B       0.100700
     95 H46         -5.3350     0.8950    -0.6300 hc         1 M6B       0.054700
     96 H47         -6.6440    -1.1750    -1.1240 hc         1 M6B       0.031367
     97 H48         -6.7780     0.0350    -2.3890 hc         1 M6B       0.031367
     98 H49         -5.7480    -1.3730    -2.6250 hc         1 M6B       0.031367
     99 H50         -3.4210     0.2690    -2.8910 hc         1 M6B       0.052200
    100 H51         -4.9280     1.0510    -3.2220 hc         1 M6B       0.052200
    101 H52         -5.2490     3.0030    -1.3460 ho         1 M6B       0.502000
    102 H53         -4.8780     3.2760    -3.6310 hc         1 M6B       0.041700
    103 H54         -3.3590     4.1310    -3.3660 hc         1 M6B       0.041700
    104 H55         -3.3790     2.6260    -4.2790 hc         1 M6B       0.041700
    105 H56         -1.6430     2.4870    -2.8260 h1         1 M6B       0.033700
    106 H57          0.3080     1.2300    -2.1070 h1         1 M6B       0.064700
    107 H58         -0.2170    -0.3220    -1.4820 h1         1 M6B       0.064700
    108 H59         -1.3510    -0.5560    -5.5230 ha         1 M6B       0.252000
@<TRIPOS>BOND
     1     1     2 1   
     2     1    50 1   
     3     1    51 1   
     4     1    52 1   
     5     2     3 1   
     6     2    53 1   
     7     3     4 2   
     8     3     5 1   
     9     5     6 1   
    10     5    54 1   
    11     6     7 2   
    12     6     8 1   
    13     7    55 1   
    14     8     9 1   
    15     8    56 1   
    16     9    10 1   
    17     9    57 1   
    18     9    58 1   
    19    10    11 1   
    20    10    59 1   
    21    10    60 1   
    22    11    12 1   
    23    11    61 1   
    24    11    62 1   
    25    12    13 1   
    26    12    63 1   
    27    13    14 2   
    28    13    15 1   
    29    15    16 1   
    30    16    17 1   
    31    16    19 1   
    32    16    64 1   
    33    17    18 1   
    34    17    45 1   
    35    17    65 1   
    36    18    66 1   
    37    18    67 1   
    38    18    68 1   
    39    19    20 1   
    40    19    21 1   
    41    19    69 1   
    42    20    70 1   
    43    20    71 1   
    44    20    72 1   
    45    21    22 2   
    46    21    23 1   
    47    23    24 1   
    48    24    25 1   
    49    24    27 1   
    50    24    73 1   
    51    25    26 1   
    52    25    74 1   
    53    25    75 1   
    54    26    76 1   
    55    26    77 1   
    56    26    78 1   
    57    27    28 1   
    58    27    29 1   
    59    27    30 1   
    60    28    79 1   
    61    29    80 1   
    62    29    81 1   
    63    29    82 1   
    64    30    31 1   
    65    30    33 1   
    66    30    83 1   
    67    31    32 1   
    68    31    38 1   
    69    31    84 1   
    70    32    85 1   
    71    32    86 1   
    72    32    87 1   
    73    33    34 1   
    74    34    35 1   
    75    34    36 1   
    76    34    37 1   
    77    35    88 1   
    78    35    89 1   
    79    35    90 1   
    80    36    91 1   
    81    36    92 1   
    82    36    93 1   
    83    37    38 1   
    84    38    39 1   
    85    38    94 1   
    86    39    40 1   
    87    39    41 1   
    88    39    95 1   
    89    40    96 1   
    90    40    97 1   
    91    40    98 1   
    92    41    42 1   
    93    41    99 1   
    94    41   100 1   
    95    42    43 1   
    96    42    44 1   
    97    42    45 1   
    98    43   101 1   
    99    44   102 1   
   100    44   103 1   
   101    44   104 1   
   102    45    46 1   
   103    45   105 1   
   104    46    47 1   
   105    47    48 1   
   106    47   106 1   
   107    47   107 1   
   108    48    49 3   
   109    49   108 1   
@<TRIPOS>SUBSTRUCTURE
     1 M6B         1 TEMP              0 ****  ****    0 ROOT
