@<TRIPOS>MOLECULE
M6E
  120   121     1     0     0
SMALL
abcg2


@<TRIPOS>ATOM
      1 C24        -19.8430    -6.5050   -30.0770 c3         1 M6E       0.112300
      2 N5         -20.3110    -5.2790   -29.4590 ns         1 M6E      -0.536900
      3 C23        -19.5080    -4.1930   -29.3520 c          1 M6E       0.670100
      4 O5         -18.3570    -4.1800   -29.7760 o          1 M6E      -0.584100
      5 N4         -20.1030    -3.1300   -28.6800 ns         1 M6E      -0.475400
      6 C22        -19.6240    -1.8150   -28.5810 c2         1 M6E       0.704800
      7 N3         -18.9780    -1.2760   -29.5500 n2         1 M6E      -0.835100
      8 N2         -19.9650    -1.2470   -27.3860 nu         1 M6E      -0.990400
      9 C16        -23.8580     3.1100   -27.1080 c3         1 M6E      -0.107400
     10 C15        -24.1010     4.5680   -26.7290 c3         1 M6E       0.113000
     11 N1         -24.6760     4.7140   -25.4010 ns         1 M6E      -0.499900
     12 C14        -23.9330     4.9030   -24.2960 c          1 M6E       0.629100
     13 O4         -22.7340     5.1280   -24.2720 o          1 M6E      -0.529000
     14 O3         -24.7210     4.8340   -23.1910 os         1 M6E      -0.483100
     15 C3         -24.1380     5.0990   -21.8980 c3         1 M6E       0.196300
     16 C4         -24.9710     6.1830   -21.2120 c3         1 M6E      -0.084700
     17 C34        -26.4360     5.7940   -21.0150 c3         1 M6E      -0.079100
     18 C2         -24.0630     3.7700   -21.1200 c3         1 M6E      -0.130700
     19 C33        -23.2780     2.6970   -21.8810 c3         1 M6E      -0.083100
     20 C1         -23.3960     4.0160   -19.7760 c          1 M6E       0.594100
     21 O1         -22.2120     4.2290   -19.6430 o          1 M6E      -0.476000
     22 O2         -24.2710     3.9560   -18.7650 os         1 M6E      -0.470100
     23 C13        -23.8030     4.0210   -17.3850 c3         1 M6E       0.184300
     24 C31        -24.0100     2.6440   -16.7730 c3         1 M6E      -0.080400
     25 C32        -23.1960     1.5580   -17.4730 c3         1 M6E      -0.091100
     26 C12        -24.5700     5.1780   -16.6890 c3         1 M6E       0.194000
     27 O10        -24.3590     4.9560   -15.2910 oh         1 M6E      -0.713000
     28 C38        -26.0630     5.1380   -17.0140 c3         1 M6E      -0.113100
     29 C11        -23.9450     6.5130   -17.1550 c6         1 M6E       0.146300
     30 C10        -24.6930     7.8180   -16.8490 c6         1 M6E      -0.116700
     31 C37        -24.9600     8.0760   -15.3640 c3         1 M6E      -0.091100
     32 O9         -22.6350     6.6060   -16.6000 os         1 M6E      -0.480000
     33 C28        -21.8180     7.6330   -17.1810 c6         1 M6E       0.405000
     34 C29        -20.7920     6.9990   -18.1030 c3         1 M6E      -0.109600
     35 C30        -21.1740     8.4050   -16.0400 c3         1 M6E      -0.109600
     36 O8         -22.6090     8.4850   -18.0060 os         1 M6E      -0.512000
     37 C9         -23.8540     8.9740   -17.4680 c6         1 M6E       0.177300
     38 C8         -24.5530     9.7430   -18.6010 c3         1 M6E      -0.062700
     39 C36        -25.7090    10.5590   -18.0140 c3         1 M6E      -0.088100
     40 C7         -25.0690     8.8580   -19.7590 c3         1 M6E      -0.104400
     41 C6         -24.1580     8.6240   -20.9790 c3         1 M6E       0.195000
     42 O7         -22.8830     8.0660   -20.6390 oh         1 M6E      -0.758000
     43 C35        -23.9250     9.9230   -21.7500 c3         1 M6E      -0.100100
     44 C5         -24.7860     7.5610   -21.9150 c3         1 M6E       0.168300
     45 O6         -26.0030     8.0930   -22.4360 os         1 M6E      -0.459000
     46 C25        -26.2610     7.7230   -23.7850 c3         1 M6E       0.243700
     47 C26        -27.5150     8.3260   -24.2170 c1         1 M6E      -0.144100
     48 C27        -28.5500     8.8090   -24.5880 c1         1 M6E      -0.226000
     49 C17        -23.3090     2.9660   -28.5280 c3         1 M6E      -0.071400
     50 C18        -23.1060     1.5120   -28.9850 c3         1 M6E      -0.069400
     51 C19        -21.7090     0.9320   -28.7460 c3         1 M6E      -0.076400
     52 C20        -21.2600     0.8870   -27.2870 c3         1 M6E      -0.107400
     53 C21        -19.9230     0.1740   -27.0800 c3         1 M6E       0.235800
     54 H1         -20.6040    -7.2700   -29.9340 h1         1 M6E       0.041367
     55 H2         -19.6660    -6.3790   -31.1480 h1         1 M6E       0.041367
     56 H3         -18.9160    -6.8400   -29.6120 h1         1 M6E       0.041367
     57 H4         -21.2880    -5.2050   -29.2290 hn         1 M6E       0.307500
     58 H5         -20.9340    -3.3360   -28.1470 hn         1 M6E       0.304500
     59 H6         -18.6740    -0.3400   -29.3000 hn         1 M6E       0.385400
     60 H7         -20.4350    -1.8330   -26.7150 hn         1 M6E       0.473000
     61 H8         -24.8030     2.5630   -27.0300 hc         1 M6E       0.045200
     62 H9         -23.1770     2.6670   -26.3790 hc         1 M6E       0.045200
     63 H10        -23.1670     5.1290   -26.7500 h1         1 M6E       0.062200
     64 H11        -24.7830     5.0340   -27.4430 h1         1 M6E       0.062200
     65 H12        -25.6440     4.4680   -25.2670 hn         1 M6E       0.322500
     66 H13        -23.1260     5.4680   -22.0520 h1         1 M6E       0.101700
     67 H14        -24.5210     6.2820   -20.2250 hc         1 M6E       0.066700
     68 H15        -26.9760     6.5900   -20.5060 hc         1 M6E       0.040367
     69 H16        -26.9380     5.6030   -21.9620 hc         1 M6E       0.040367
     70 H17        -26.5160     4.8960   -20.4040 hc         1 M6E       0.040367
     71 H18        -25.0740     3.4120   -20.9360 hc         1 M6E       0.081700
     72 H19        -23.2330     1.7770   -21.2970 hc         1 M6E       0.049367
     73 H20        -23.7700     2.4740   -22.8270 hc         1 M6E       0.049367
     74 H21        -22.2610     3.0290   -22.0840 hc         1 M6E       0.049367
     75 H22        -22.7440     4.2670   -17.3990 h1         1 M6E       0.093700
     76 H23        -23.7210     2.7040   -15.7250 hc         1 M6E       0.060200
     77 H24        -25.0720     2.3880   -16.7980 hc         1 M6E       0.060200
     78 H25        -23.3420     0.5960   -16.9780 hc         1 M6E       0.036033
     79 H26        -23.4920     1.4400   -18.5170 hc         1 M6E       0.036033
     80 H27        -22.1290     1.7920   -17.4490 hc         1 M6E       0.036033
     81 H28        -24.7320     5.6970   -14.8000 ho         1 M6E       0.509000
     82 H29        -26.6050     5.8410   -16.3830 hc         1 M6E       0.048033
     83 H30        -26.2500     5.3950   -18.0550 hc         1 M6E       0.048033
     84 H31        -26.4590     4.1400   -16.8270 hc         1 M6E       0.048033
     85 H32        -23.8730     6.4340   -18.2420 h1         1 M6E       0.055700
     86 H33        -25.6550     7.7810   -17.3590 hc         1 M6E       0.064700
     87 H34        -25.3020     9.1020   -15.2210 hc         1 M6E       0.040700
     88 H35        -25.7450     7.4290   -14.9690 hc         1 M6E       0.040700
     89 H36        -24.0580     7.9410   -14.7650 hc         1 M6E       0.040700
     90 H37        -20.1400     6.3450   -17.5240 hc         1 M6E       0.056533
     91 H38        -21.2940     6.4040   -18.8650 hc         1 M6E       0.056533
     92 H39        -20.1850     7.7680   -18.5830 hc         1 M6E       0.056533
     93 H40        -21.9260     8.8960   -15.4240 hc         1 M6E       0.056533
     94 H41        -20.6120     7.7150   -15.4110 hc         1 M6E       0.056533
     95 H42        -20.4910     9.1570   -16.4370 hc         1 M6E       0.056533
     96 H43        -23.6120     9.6950   -16.6840 h1         1 M6E       0.047700
     97 H44        -23.8120    10.4500   -18.9820 hc         1 M6E       0.068700
     98 H45        -25.3710    11.1930   -17.1910 hc         1 M6E       0.038367
     99 H46        -26.1430    11.1990   -18.7830 hc         1 M6E       0.038367
    100 H47        -26.5030     9.9100   -17.6360 hc         1 M6E       0.038367
    101 H48        -25.9760     9.3160   -20.1550 hc         1 M6E       0.055700
    102 H49        -25.3820     7.8980   -19.3550 hc         1 M6E       0.055700
    103 H50        -22.7090     8.2100   -19.6890 ho         1 M6E       0.542000
    104 H51        -23.4110    10.6490   -21.1180 hc         1 M6E       0.044033
    105 H52        -23.2970     9.7260   -22.6210 hc         1 M6E       0.044033
    106 H53        -24.8640    10.3590   -22.0880 hc         1 M6E       0.044033
    107 H54        -24.0780     7.4480   -22.7420 h1         1 M6E       0.058700
    108 H55        -26.3260     6.6360   -23.8870 h1         1 M6E       0.046700
    109 H56        -25.4420     8.0630   -24.4320 h1         1 M6E       0.046700
    110 H57        -29.4680     9.2390   -24.9170 ha         1 M6E       0.255000
    111 H58        -22.3640     3.5130   -28.6130 hc         1 M6E       0.041700
    112 H59        -24.0080     3.4610   -29.2100 hc         1 M6E       0.041700
    113 H60        -23.3090     1.4460   -30.0570 hc         1 M6E       0.039700
    114 H61        -23.8510     0.8750   -28.4960 hc         1 M6E       0.039700
    115 H62        -21.6870    -0.0810   -29.1560 hc         1 M6E       0.045200
    116 H63        -20.9780     1.5120   -29.3210 hc         1 M6E       0.045200
    117 H64        -21.1570     1.9010   -26.8910 hc         1 M6E       0.046700
    118 H65        -22.0220     0.3880   -26.6790 hc         1 M6E       0.046700
    119 H66        -19.6100     0.2760   -26.0400 h1         1 M6E       0.053200
    120 H67        -19.1460     0.6450   -27.6840 h1         1 M6E       0.053200
@<TRIPOS>BOND
     1     1     2 1   
     2     1    54 1   
     3     1    55 1   
     4     1    56 1   
     5     2     3 1   
     6     2    57 1   
     7     3     4 2   
     8     3     5 1   
     9     5     6 1   
    10     5    58 1   
    11     6     7 2   
    12     6     8 1   
    13     7    59 1   
    14     8    53 1   
    15     8    60 1   
    16     9    10 1   
    17     9    49 1   
    18     9    61 1   
    19     9    62 1   
    20    10    11 1   
    21    10    63 1   
    22    10    64 1   
    23    11    12 1   
    24    11    65 1   
    25    12    13 2   
    26    12    14 1   
    27    14    15 1   
    28    15    16 1   
    29    15    18 1   
    30    15    66 1   
    31    16    17 1   
    32    16    44 1   
    33    16    67 1   
    34    17    68 1   
    35    17    69 1   
    36    17    70 1   
    37    18    19 1   
    38    18    20 1   
    39    18    71 1   
    40    19    72 1   
    41    19    73 1   
    42    19    74 1   
    43    20    21 2   
    44    20    22 1   
    45    22    23 1   
    46    23    24 1   
    47    23    26 1   
    48    23    75 1   
    49    24    25 1   
    50    24    76 1   
    51    24    77 1   
    52    25    78 1   
    53    25    79 1   
    54    25    80 1   
    55    26    27 1   
    56    26    28 1   
    57    26    29 1   
    58    27    81 1   
    59    28    82 1   
    60    28    83 1   
    61    28    84 1   
    62    29    30 1   
    63    29    32 1   
    64    29    85 1   
    65    30    31 1   
    66    30    37 1   
    67    30    86 1   
    68    31    87 1   
    69    31    88 1   
    70    31    89 1   
    71    32    33 1   
    72    33    34 1   
    73    33    35 1   
    74    33    36 1   
    75    34    90 1   
    76    34    91 1   
    77    34    92 1   
    78    35    93 1   
    79    35    94 1   
    80    35    95 1   
    81    36    37 1   
    82    37    38 1   
    83    37    96 1   
    84    38    39 1   
    85    38    40 1   
    86    38    97 1   
    87    39    98 1   
    88    39    99 1   
    89    39   100 1   
    90    40    41 1   
    91    40   101 1   
    92    40   102 1   
    93    41    42 1   
    94    41    43 1   
    95    41    44 1   
    96    42   103 1   
    97    43   104 1   
    98    43   105 1   
    99    43   106 1   
   100    44    45 1   
   101    44   107 1   
   102    45    46 1   
   103    46    47 1   
   104    46   108 1   
   105    46   109 1   
   106    47    48 3   
   107    48   110 1   
   108    49    50 1   
   109    49   111 1   
   110    49   112 1   
   111    50    51 1   
   112    50   113 1   
   113    50   114 1   
   114    51    52 1   
   115    51   115 1   
   116    51   116 1   
   117    52    53 1   
   118    52   117 1   
   119    52   118 1   
   120    53   119 1   
   121    53   120 1   
@<TRIPOS>SUBSTRUCTURE
     1 M6E         1 TEMP              0 ****  ****    0 ROOT
