@<TRIPOS>MOLECULE
M6E
  120   121     1     0     0
SMALL
No Charge or Current Charge


@<TRIPOS>ATOM
      1 C24        -21.0920    -5.6250   -28.6080 c3         1 M6E       0.112300
      2 N5         -20.8810    -4.2620   -28.1160 ns         1 M6E      -0.536900
      3 C23        -19.7910    -3.4930   -28.4310 c          1 M6E       0.670100
      4 O5         -18.8910    -3.8900   -29.1520 o          1 M6E      -0.584100
      5 N4         -19.8380    -2.2700   -27.8380 ns         1 M6E      -0.475400
      6 C22        -18.9530    -1.2430   -27.9660 c2         1 M6E       0.704800
      7 N3         -18.1690    -0.9820   -28.9130 n2         1 M6E      -0.835100
      8 N2         -19.0880    -0.3710   -26.9470 nu         1 M6E      -0.990400
      9 C16        -24.0110     2.8630   -27.2170 c3         1 M6E      -0.107400
     10 C15        -24.5710     4.2850   -27.0060 c3         1 M6E       0.113000
     11 N1         -25.0150     4.4960   -25.6290 ns         1 M6E      -0.499900
     12 C14        -24.1840     4.7120   -24.5690 c          1 M6E       0.629100
     13 O4         -22.9710     4.8230   -24.6370 o          1 M6E      -0.529000
     14 O3         -24.9420     4.8190   -23.4430 os         1 M6E      -0.483100
     15 C3         -24.2900     5.0050   -22.1700 c3         1 M6E       0.196300
     16 C4         -25.0600     6.1390   -21.4230 c3         1 M6E      -0.084700
     17 C34        -26.5640     5.8310   -21.1460 c3         1 M6E      -0.079100
     18 C2         -24.2470     3.6320   -21.4300 c3         1 M6E      -0.130700
     19 C33        -23.6370     2.4750   -22.2680 c3         1 M6E      -0.083100
     20 C1         -23.4910     3.7660   -20.0970 c          1 M6E       0.594100
     21 O1         -22.2820     3.9240   -20.0210 o          1 M6E      -0.476000
     22 O2         -24.3420     3.7570   -19.0200 os         1 M6E      -0.470100
     23 C13        -23.8030     3.7330   -17.6710 c3         1 M6E       0.184300
     24 C31        -24.0290     2.2890   -17.1340 c3         1 M6E      -0.080400
     25 C32        -23.2750     1.1960   -17.9230 c3         1 M6E      -0.091100
     26 C12        -24.4720     4.8980   -16.8340 c3         1 M6E       0.194000
     27 O10        -24.1350     4.7190   -15.4490 oh         1 M6E      -0.713000
     28 C38        -26.0230     4.8470   -16.9510 c3         1 M6E      -0.113100
     29 C11        -23.8560     6.2750   -17.3030 c6         1 M6E       0.146300
     30 C10        -24.5720     7.6080   -16.9020 c6         1 M6E      -0.116700
     31 C37        -24.7790     7.8020   -15.3660 c3         1 M6E      -0.091100
     32 O9         -22.5080     6.3530   -16.7730 os         1 M6E      -0.480000
     33 C28        -21.7070     7.4230   -17.3190 c6         1 M6E       0.405000
     34 C29        -20.6730     6.7980   -18.2790 c3         1 M6E      -0.109600
     35 C30        -21.0100     8.1820   -16.1630 c3         1 M6E      -0.109600
     36 O8         -22.5190     8.3270   -18.1050 os         1 M6E      -0.512000
     37 C9         -23.7320     8.8040   -17.4860 c6         1 M6E       0.177300
     38 C8         -24.4820     9.6700   -18.5660 c3         1 M6E      -0.062700
     39 C36        -25.6150    10.4950   -17.9040 c3         1 M6E      -0.088100
     40 C7         -25.0430     8.8930   -19.8160 c3         1 M6E      -0.104400
     41 C6         -24.1080     8.5920   -21.0420 c3         1 M6E       0.195000
     42 O7         -22.8710     8.0270   -20.6080 oh         1 M6E      -0.758000
     43 C35        -23.7400     9.9040   -21.7820 c3         1 M6E      -0.100100
     44 C5         -24.7640     7.5630   -22.0480 c3         1 M6E       0.168300
     45 O6         -25.9660     8.1630   -22.5970 os         1 M6E      -0.459000
     46 C25        -26.3620     7.7010   -23.9460 c3         1 M6E       0.243700
     47 C26        -27.5510     8.4090   -24.5460 c1         1 M6E      -0.144100
     48 C27        -28.5230     8.9610   -25.0130 c1         1 M6E      -0.226000
     49 C17        -23.5210     2.6190   -28.6650 c3         1 M6E      -0.071400
     50 C18        -22.9340     1.2070   -28.9180 c3         1 M6E      -0.069400
     51 C19        -21.4010     1.0640   -28.7300 c3         1 M6E      -0.076400
     52 C20        -20.8750     1.3440   -27.2990 c3         1 M6E      -0.107400
     53 C21        -19.3670     1.0690   -27.1010 c3         1 M6E       0.235800
     54 H1         -22.0380    -6.0160   -28.2120 h1         1 M6E       0.041367
     55 H2         -21.1340    -5.6200   -29.7050 h1         1 M6E       0.041367
     56 H3         -20.2670    -6.2690   -28.2770 h1         1 M6E       0.041367
     57 H4         -21.5820    -3.8560   -27.5090 hn         1 M6E       0.307500
     58 H5         -20.6270    -2.0900   -27.2460 hn         1 M6E       0.304500
     59 H6         -17.7080    -0.1080   -28.6430 hn         1 M6E       0.385400
     60 H7         -19.3580    -0.7900   -26.0610 hn         1 M6E       0.473000
     61 H8         -24.7940     2.1340   -26.9740 hc         1 M6E       0.045200
     62 H9         -23.1950     2.6950   -26.5070 hc         1 M6E       0.045200
     63 H10        -23.7980     5.0270   -27.2480 h1         1 M6E       0.062200
     64 H11        -25.4220     4.4490   -27.6800 h1         1 M6E       0.062200
     65 H12        -26.0010     4.4270   -25.4120 hn         1 M6E       0.322500
     66 H13        -23.2530     5.3500   -22.2950 h1         1 M6E       0.101700
     67 H14        -24.6060     6.1480   -20.4290 hc         1 M6E       0.066700
     68 H15        -27.0640     6.6880   -20.6810 hc         1 M6E       0.040367
     69 H16        -27.1060     5.5790   -22.0640 hc         1 M6E       0.040367
     70 H17        -26.6710     4.9860   -20.4570 hc         1 M6E       0.040367
     71 H18        -25.2790     3.3510   -21.1950 hc         1 M6E       0.081700
     72 H19        -23.5850     1.5560   -21.6720 hc         1 M6E       0.049367
     73 H20        -24.2480     2.2610   -23.1530 hc         1 M6E       0.049367
     74 H21        -22.6210     2.7240   -22.6000 hc         1 M6E       0.049367
     75 H22        -22.7200     3.9180   -17.6630 h1         1 M6E       0.093700
     76 H23        -23.7020     2.2350   -16.0890 hc         1 M6E       0.060200
     77 H24        -25.0990     2.0510   -17.1410 hc         1 M6E       0.060200
     78 H25        -23.4100     0.2190   -17.4430 hc         1 M6E       0.036033
     79 H26        -23.6490     1.1210   -18.9510 hc         1 M6E       0.036033
     80 H27        -22.2010     1.4140   -17.9590 hc         1 M6E       0.036033
     81 H28        -23.3380     5.2910   -15.3360 ho         1 M6E       0.509000
     82 H29        -26.5040     5.5770   -16.2940 hc         1 M6E       0.048033
     83 H30        -26.3450     5.0630   -17.9760 hc         1 M6E       0.048033
     84 H31        -26.4120     3.8620   -16.6720 hc         1 M6E       0.048033
     85 H32        -23.7970     6.2360   -18.3990 h1         1 M6E       0.055700
     86 H33        -25.5830     7.6110   -17.3270 hc         1 M6E       0.064700
     87 H34        -25.2210     8.7830   -15.1530 hc         1 M6E       0.040700
     88 H35        -25.4560     7.0540   -14.9410 hc         1 M6E       0.040700
     89 H36        -23.8350     7.7410   -14.8150 hc         1 M6E       0.040700
     90 H37        -20.0320     6.0800   -17.7540 hc         1 M6E       0.056533
     91 H38        -21.1670     6.2670   -19.0990 hc         1 M6E       0.056533
     92 H39        -20.0270     7.5660   -18.7180 hc         1 M6E       0.056533
     93 H40        -21.7270     8.5540   -15.4250 hc         1 M6E       0.056533
     94 H41        -20.3060     7.5290   -15.6360 hc         1 M6E       0.056533
     95 H42        -20.4460     9.0410   -16.5440 hc         1 M6E       0.056533
     96 H43        -23.4430     9.4820   -16.6700 h1         1 M6E       0.047700
     97 H44        -23.7660    10.4150   -18.9330 hc         1 M6E       0.068700
     98 H45        -25.2340    11.0590   -17.0440 hc         1 M6E       0.038367
     99 H46        -26.0360    11.2170   -18.6140 hc         1 M6E       0.038367
    100 H47        -26.4280     9.8470   -17.5550 hc         1 M6E       0.038367
    101 H48        -25.8900     9.4650   -20.2150 hc         1 M6E       0.055700
    102 H49        -25.4990     7.9650   -19.4680 hc         1 M6E       0.055700
    103 H50        -22.7840     8.2240   -19.6310 ho         1 M6E       0.542000
    104 H51        -23.1610    10.5780   -21.1410 hc         1 M6E       0.044033
    105 H52        -23.1360     9.6930   -22.6720 hc         1 M6E       0.044033
    106 H53        -24.6410    10.4400   -22.1060 hc         1 M6E       0.044033
    107 H54        -24.0320     7.4320   -22.8560 h1         1 M6E       0.058700
    108 H55        -26.6000     6.6330   -23.9310 h1         1 M6E       0.046700
    109 H56        -25.5210     7.8270   -24.6400 h1         1 M6E       0.046700
    110 H57        -29.3840     9.4570   -25.4150 ha         1 M6E       0.255000
    111 H58        -22.7820     3.3810   -28.9430 hc         1 M6E       0.041700
    112 H59        -24.3760     2.7610   -29.3380 hc         1 M6E       0.041700
    113 H60        -23.1610     0.9300   -29.9560 hc         1 M6E       0.039700
    114 H61        -23.4520     0.4700   -28.2920 hc         1 M6E       0.039700
    115 H62        -21.1280     0.0440   -29.0220 hc         1 M6E       0.045200
    116 H63        -20.8900     1.7310   -29.4350 hc         1 M6E       0.045200
    117 H64        -21.0360     2.4050   -27.0780 hc         1 M6E       0.046700
    118 H65        -21.4550     0.7730   -26.5640 hc         1 M6E       0.046700
    119 H66        -19.0510     1.5860   -26.1840 h1         1 M6E       0.053200
    120 H67        -18.7920     1.5070   -27.9290 h1         1 M6E       0.053200
@<TRIPOS>BOND
     1     1     2 1   
     2     1    54 1   
     3     1    55 1   
     4     1    56 1   
     5     2     3 1   
     6     2    57 1   
     7     3     4 2   
     8     3     5 1   
     9     5     6 1   
    10     5    58 1   
    11     6     7 2   
    12     6     8 1   
    13     7    59 1   
    14     8    53 1   
    15     8    60 1   
    16     9    10 1   
    17     9    49 1   
    18     9    61 1   
    19     9    62 1   
    20    10    11 1   
    21    10    63 1   
    22    10    64 1   
    23    11    12 1   
    24    11    65 1   
    25    12    13 2   
    26    12    14 1   
    27    14    15 1   
    28    15    16 1   
    29    15    18 1   
    30    15    66 1   
    31    16    17 1   
    32    16    44 1   
    33    16    67 1   
    34    17    68 1   
    35    17    69 1   
    36    17    70 1   
    37    18    19 1   
    38    18    20 1   
    39    18    71 1   
    40    19    72 1   
    41    19    73 1   
    42    19    74 1   
    43    20    21 2   
    44    20    22 1   
    45    22    23 1   
    46    23    24 1   
    47    23    26 1   
    48    23    75 1   
    49    24    25 1   
    50    24    76 1   
    51    24    77 1   
    52    25    78 1   
    53    25    79 1   
    54    25    80 1   
    55    26    27 1   
    56    26    28 1   
    57    26    29 1   
    58    27    81 1   
    59    28    82 1   
    60    28    83 1   
    61    28    84 1   
    62    29    30 1   
    63    29    32 1   
    64    29    85 1   
    65    30    31 1   
    66    30    37 1   
    67    30    86 1   
    68    31    87 1   
    69    31    88 1   
    70    31    89 1   
    71    32    33 1   
    72    33    34 1   
    73    33    35 1   
    74    33    36 1   
    75    34    90 1   
    76    34    91 1   
    77    34    92 1   
    78    35    93 1   
    79    35    94 1   
    80    35    95 1   
    81    36    37 1   
    82    37    38 1   
    83    37    96 1   
    84    38    39 1   
    85    38    40 1   
    86    38    97 1   
    87    39    98 1   
    88    39    99 1   
    89    39   100 1   
    90    40    41 1   
    91    40   101 1   
    92    40   102 1   
    93    41    42 1   
    94    41    43 1   
    95    41    44 1   
    96    42   103 1   
    97    43   104 1   
    98    43   105 1   
    99    43   106 1   
   100    44    45 1   
   101    44   107 1   
   102    45    46 1   
   103    46    47 1   
   104    46   108 1   
   105    46   109 1   
   106    47    48 3   
   107    48   110 1   
   108    49    50 1   
   109    49   111 1   
   110    49   112 1   
   111    50    51 1   
   112    50   113 1   
   113    50   114 1   
   114    51    52 1   
   115    51   115 1   
   116    51   116 1   
   117    52    53 1   
   118    52   117 1   
   119    52   118 1   
   120    53   119 1   
   121    53   120 1   
@<TRIPOS>SUBSTRUCTURE
     1 M6E         1 TEMP              0 ****  ****    0 ROOT
