@<TRIPOS>MOLECULE
M6G
  114    48     1     0     0
SMALL
abcg2


@<TRIPOS>ATOM
      1 C1         -27.7370     6.1020   -36.2650 c2         1 M6G       0.093000
      2 C2         -26.4030     5.6640   -35.1520 c1         1 M6G      -0.030000
      3 C3         -25.5920     2.9020   -34.6630 c1         1 M6G       0.254000
      4 C4         -25.8050     2.0720   -32.8870 c1         1 M6G      -0.014091
      5 C5         -25.0220    -0.7030   -33.0300 c1         1 M6G      -0.402000
      6 C6         -25.8690    -1.4490   -34.5860 c1         1 M6G       0.032000
      7 O1         -28.0350     6.4310   -38.2270 os         1 M6G      -0.263500
      8 O2         -28.4910     6.9070   -34.7720 os         1 M6G      -0.596000
      9 O3         -24.0770     2.8330   -33.9100 os         1 M6G      -0.414000
     10 O4         -25.4800     0.0130   -36.0890 o          1 M6G      -0.411000
     11 O5         -21.2370    -5.9720   -26.1490 o          1 M6G      -0.151000
     12 O6         -24.7500    -1.5840   -30.6260 o          1 M6G      -0.544000
     13 C22        -23.3130    -7.4080   -23.5910 c1         1 M6G      -0.014091
     14 N5         -21.2490    -6.7430   -24.4310 n2         1 M6G      -0.619000
     15 C21        -20.3910    -6.1210   -25.5670 c1         1 M6G       0.239000
     16 N4         -18.4340    -5.2510   -26.0800 n1         1 M6G      -0.449500
     17 C20        -17.2140    -4.3320   -27.2160 c1         1 M6G       0.014000
     18 N3         -15.4350    -3.7030   -27.7960 n1         1 M6G      -0.449500
     19 N2         -17.9610    -4.2960   -28.0550 n1         1 M6G      -0.412000
     20 C16        -20.8170    -1.4310   -34.3440 c1         1 M6G      -0.014091
     21 C15        -22.8370    -0.2000   -35.7240 c1         1 M6G       0.070000
     22 N1         -22.5590     1.3340   -35.5050 n2         1 M6G      -0.422000
     23 C14        -23.9120     1.4920   -35.2040 c1         1 M6G       0.156000
     24 C32        -25.5780     3.4090   -30.4000 c1         1 M6G      -0.232667
     25 C31        -26.0980     6.4350   -36.9010 c1         1 M6G      -0.447000
     26 C13        -29.6080     8.1910   -35.3220 c1         1 M6G       0.157000
     27 C29        -29.5750    10.9460   -34.8160 c1         1 M6G      -0.014091
     28 C30        -28.6230    11.8490   -36.3000 c1         1 M6G      -0.014091
     29 C12        -30.3770     7.0730   -34.0660 c1         1 M6G       0.427000
     30 O10        -31.6220     8.2400   -34.4230 o          1 M6G      -0.562000
     31 C36        -29.9890     6.8600   -31.2850 c1         1 M6G      -0.232667
     32 C11        -29.7910     4.5930   -35.0750 c1         1 M6G      -0.014091
     33 C10        -30.0310     2.5140   -33.8030 c1         1 M6G      -0.236000
     34 C35        -31.2920     2.8220   -33.7440 c1         1 M6G      -0.236000
     35 O9         -30.0540     4.9670   -37.4140 os         1 M6G      -0.263500
     36 C26        -29.0890     2.8430   -38.6390 c1         1 M6G       0.178000
     37 C27        -28.4090     3.5780   -40.3940 c1         1 M6G      -0.014091
     38 C28        -30.0540     2.3590   -39.9680 c1         1 M6G      -0.227500
     39 O8         -27.9250     0.9240   -37.2590 o          1 M6G      -0.626000
     40 C9         -28.7400     0.3780   -35.2720 c1         1 M6G      -0.014091
     41 C8         -27.5010    -1.6940   -33.9560 c1         1 M6G       0.032000
     42 C34        -27.9590    -2.5120   -31.9680 c1         1 M6G      -0.014091
     43 C7         -26.5640    -0.7970   -33.0650 c2         1 M6G      -0.128000
     44 O7         -26.2070    -0.8300   -37.0340 o          1 M6G      -0.411000
     45 C33        -25.6000    -4.1150   -35.1040 c1         1 M6G      -0.232667
     46 C23        -23.8040    -0.9610   -29.7540 c1         1 M6G       0.250000
     47 C24        -21.7070    -2.6090   -30.0520 c1         1 M6G      -0.227500
     48 C25        -20.2120    -3.4950   -29.9070 c1         1 M6G       0.178000
     49 C17        -20.2770    -2.6210   -32.0050 c1         1 M6G      -0.014091
     50 C18        -18.3920    -3.9110   -30.7610 c1         1 M6G      -0.014091
     51 C19        -16.7720    -3.3600   -29.8310 DU         1 M6G       0.011000
     52 H1         -26.0700     6.8320   -33.6870 DU         1 M6G       0.150811
     53 H2         -25.9210     1.5910   -35.9290 DU         1 M6G       0.150811
     54 H3         -26.8210     2.6200   -33.5230 ha         1 M6G       0.028273
     55 H4         -24.1550    -1.1130   -33.8000 ha         1 M6G       0.278000
     56 H5         -23.5290    -7.1080   -22.6690 ha         1 M6G       0.028273
     57 H6         -23.9860    -6.4130   -24.5240 DU         1 M6G       0.150811
     58 H7         -23.2580    -8.6050   -22.9560 DU         1 M6G       0.150811
     59 H8         -20.4250    -6.5480   -24.1130 hn         1 M6G       0.119000
     60 H9         -17.7690    -5.2830   -25.4150 hn         1 M6G       0.147000
     61 H10        -15.2290    -3.7160   -26.9210 hn         1 M6G       0.147000
     62 H11        -18.9910    -5.2850   -27.6620 DU         1 M6G       0.150811
     63 H12        -20.8430    -2.2610   -34.9100 ha         1 M6G       0.028273
     64 H13        -19.3620    -0.9300   -34.9380 DU         1 M6G       0.150811
     65 H14        -24.2430    -1.1610   -35.3590 DU         1 M6G       0.150811
     66 H15        -23.0810     0.2870   -36.9370 DU         1 M6G       0.150811
     67 H16        -21.1680     2.1860   -35.0620 DU         1 M6G       0.150811
     68 H17        -26.2210     2.8460   -29.8540 ha         1 M6G       0.031500
     69 H18        -24.5150     3.0640   -29.7830 ha         1 M6G       0.031500
     70 H19        -25.9980     5.2120   -30.5800 DU         1 M6G       0.150811
     71 H20        -24.9960     6.4400   -36.5650 ha         1 M6G       0.114000
     72 H21        -26.5360     5.3800   -38.2990 DU         1 M6G       0.150811
     73 H22        -26.7510     8.1230   -37.1590 DU         1 M6G       0.150811
     74 H23        -29.9440     7.9840   -37.0860 DU         1 M6G       0.150811
     75 H24        -29.2200    11.3530   -32.9770 DU         1 M6G       0.150811
     76 H25        -30.4430    11.6890   -34.9340 ha         1 M6G       0.028273
     77 H26        -28.8090    13.6710   -36.1810 DU         1 M6G       0.150811
     78 H27        -27.6620    11.3720   -36.1940 ha         1 M6G       0.028273
     79 H28        -29.0080    11.4980   -38.0780 DU         1 M6G       0.150811
     80 H29        -31.3480     9.6710   -33.7840 DU         1 M6G       0.150811
     81 H30        -30.2430     8.5240   -30.4800 DU         1 M6G       0.150811
     82 H31        -30.6350     6.1200   -30.7730 ha         1 M6G       0.031500
     83 H32        -29.0590     6.0640   -31.0220 ha         1 M6G       0.031500
     84 H33        -28.9000     4.0810   -35.0530 ha         1 M6G       0.028273
     85 H34        -29.8040     2.2660   -32.1420 DU         1 M6G       0.150811
     86 H35        -32.1740     3.8980   -32.5140 DU         1 M6G       0.150811
     87 H36        -31.8550     3.3290   -35.1630 DU         1 M6G       0.150811
     88 H37        -31.5260     1.3120   -33.2870 DU         1 M6G       0.150811
     89 H38        -27.8040     4.2400   -39.7330 ha         1 M6G       0.028273
     90 H39        -27.6720     2.3050   -41.4930 DU         1 M6G       0.150811
     91 H40        -29.5230     4.7320   -41.2190 DU         1 M6G       0.150811
     92 H41        -31.1010     2.3030   -39.2080 ha         1 M6G       0.005500
     93 H42        -30.3490     3.6170   -41.3000 DU         1 M6G       0.150811
     94 H43        -29.9460     0.6670   -40.5810 DU         1 M6G       0.150811
     95 H44        -29.2930    -0.2740   -35.8240 ha         1 M6G       0.028273
     96 H45        -26.8600    -3.1830   -34.8480 DU         1 M6G       0.150811
     97 H46        -27.0930    -3.6590   -31.0290 DU         1 M6G       0.150811
     98 H47        -28.6150    -1.2070   -30.9630 DU         1 M6G       0.150811
     99 H48        -28.5020    -3.0950   -32.5220 ha         1 M6G       0.028273
    100 H49        -27.1300     0.9490   -32.8650 DU         1 M6G       0.150811
    101 H50        -25.7500    -1.4250   -31.5010 DU         1 M6G       0.150811
    102 H51        -26.9440     0.4560   -37.5530 ho         1 M6G       0.236000
    103 H52        -25.7410    -5.2760   -33.7030 DU         1 M6G       0.150811
    104 H53        -26.3790    -4.5400   -35.9890 ha         1 M6G       0.031500
    105 H54        -24.7760    -4.3770   -35.8260 ha         1 M6G       0.031500
    106 H55        -23.7990    -0.0410   -30.4770 ha         1 M6G       0.160000
    107 H56        -24.5170    -0.6100   -27.9920 DU         1 M6G       0.150811
    108 H57        -18.9950    -5.0030   -30.1050 DU         1 M6G       0.150811
    109 H58        -20.3570    -1.7850   -31.4650 ha         1 M6G       0.028273
    110 H59        -21.7480    -3.2410   -31.0210 ha         1 M6G       0.005500
    111 H60        -18.4750    -4.9790   -29.3630 DU         1 M6G       0.150811
    112 H61        -17.7000    -3.9310   -31.5320 ha         1 M6G       0.028273
    113 H62        -15.3210    -3.9360   -29.3390 DU         1 M6G       0.150811
    114 H63        -16.7300    -2.1330   -30.7230 DU         1 M6G       0.150811
@<TRIPOS>BOND
     1     1     2 1   
     2     1     8 1   
     3     1    25 1   
     4     3     9 1   
     5     4    54 1   
     6     5    43 1   
     7     5    55 1   
     8     6    41 1   
     9     6    43 1   
    10     8    26 1   
    11     9    23 1   
    12    10    44 1   
    13    11    15 1   
    14    12    46 1   
    15    13    56 1   
    16    14    15 1   
    17    14    59 1   
    18    16    60 1   
    19    17    19 1   
    20    18    61 1   
    21    20    63 1   
    22    21    22 1   
    23    22    23 1   
    24    24    68 1   
    25    24    69 1   
    26    25    71 1   
    27    26    29 1   
    28    27    76 1   
    29    28    78 1   
    30    29    30 1   
    31    31    82 1   
    32    31    83 1   
    33    32    84 1   
    34    33    34 1   
    35    36    38 1   
    36    37    89 1   
    37    38    92 1   
    38    39   102 1   
    39    40    95 1   
    40    41    43 1   
    41    42    99 1   
    42    45   104 1   
    43    45   105 1   
    44    46   106 1   
    45    47    48 1   
    46    47   110 1   
    47    49   109 1   
    48    50   112 1   
@<TRIPOS>SUBSTRUCTURE
     1 M6G         1 TEMP              0 ****  ****    0 ROOT
