@<TRIPOS>MOLECULE
M6H
   26    27     1     0     0
SMALL
No Charge or Current Charge


@<TRIPOS>ATOM
      1 CAA          3.6490     0.5160    -0.0790 ca         1 M6H      -0.113000
      2 CAB          2.7450     1.4260     0.4950 ca         1 M6H      -0.115000
      3 CAC          3.2190    -0.7770    -0.4200 ca         1 M6H      -0.115000
      4 CAD          1.4130     1.0430     0.7280 ca         1 M6H      -0.103000
      5 CAE          1.8860    -1.1600    -0.1880 ca         1 M6H      -0.103000
      6 CAF         -2.7390     1.2010    -0.3300 c5         1 M6H       0.129800
      7 CAG         -3.4680    -0.0570     0.2030 c5         1 M6H       0.129800
      8 CAK         -1.3580    -0.6840    -0.6380 c5         1 M6H       0.391700
      9 CAL          0.9750    -0.2520     0.3880 ca         1 M6H      -0.077300
     10 NAI         -1.6530     0.6450    -1.1770 n7         1 M6H      -0.873400
     11 NAJ         -2.7120    -1.1840    -0.4030 n7         1 M6H      -0.873400
     12 H1           4.6800     0.8120    -0.2590 ha         1 M6H       0.109000
     13 H2           3.0770     2.4280     0.7590 ha         1 M6H       0.109500
     14 H3           3.9170    -1.4830    -0.8650 ha         1 M6H       0.109500
     15 H4           0.7190     1.7560     1.1690 ha         1 M6H       0.113500
     16 H5           1.5620    -2.1640    -0.4550 ha         1 M6H       0.113500
     17 H7          -2.3250     1.7840     0.5050 h1         1 M6H       0.050950
     18 H8          -3.4120    -0.0930     1.3000 h1         1 M6H       0.050950
     19 H9          -4.5290    -0.0790    -0.0830 h1         1 M6H       0.050950
     20 H12         -0.8490    -1.3010    -1.3910 h2         1 M6H       0.029700
     21 H13         -2.0040     0.5060    -2.1280 hn         1 M6H       0.413500
     22 H15         -3.1100    -1.4010    -1.3220 hn         1 M6H       0.413500
     23 CAH         -0.4700    -0.6740     0.6430 c3         1 M6H      -0.012100
     24 H6          -3.4060     1.8600    -0.9040 h1         1 M6H       0.050950
     25 H10         -0.9110    -0.0370     1.4170 hc         1 M6H       0.059700
     26 H11         -0.4700    -1.6830     1.0710 hc         1 M6H       0.059700
@<TRIPOS>BOND
     1     1     2 ar  
     2     1     3 ar  
     3     1    12 1   
     4     2     4 ar  
     5     2    13 1   
     6     3     5 ar  
     7     3    14 1   
     8     4     9 ar  
     9     4    15 1   
    10     5     9 ar  
    11     5    16 1   
    12     6     7 1   
    13     6    10 1   
    14     6    17 1   
    15     6    24 1   
    16     7    11 1   
    17     7    18 1   
    18     7    19 1   
    19     8    10 1   
    20     8    11 1   
    21     8    20 1   
    22     8    23 1   
    23     9    23 1   
    24    10    21 1   
    25    11    22 1   
    26    23    25 1   
    27    23    26 1   
@<TRIPOS>SUBSTRUCTURE
     1 M6H         1 TEMP              0 ****  ****    0 ROOT
