@<TRIPOS>MOLECULE
M6H
   26    27     1     0     0
SMALL
bcc


@<TRIPOS>ATOM
      1 CAA          3.5550     0.5410    -0.2310 ca         1 M6H      -0.131000
      2 CAB          2.6800     1.3430     0.4890 ca         1 M6H      -0.133000
      3 CAC          3.1530    -0.7300    -0.6200 ca         1 M6H      -0.133000
      4 CAD          1.4120     0.8780     0.8130 ca         1 M6H      -0.121000
      5 CAE          1.8860    -1.1910    -0.2890 ca         1 M6H      -0.121000
      6 CAF         -2.9060     1.1820    -0.6610 c5         1 M6H       0.129800
      7 CAG         -3.4890     0.1020     0.2400 c5         1 M6H       0.129800
      8 CAK         -1.3670    -0.5940    -0.4030 c5         1 M6H       0.391700
      9 CAL          0.9970    -0.3960     0.4330 ca         1 M6H      -0.077300
     10 NAI         -1.4900     0.8540    -0.6140 n7         1 M6H      -0.818200
     11 NAJ         -2.7050    -1.0860    -0.0810 n7         1 M6H      -0.818200
     12 H1           4.5440     0.9010    -0.4840 ha         1 M6H       0.127000
     13 H2           2.9840     2.3340     0.8010 ha         1 M6H       0.127500
     14 H3           3.8280    -1.3650    -1.1810 ha         1 M6H       0.127500
     15 H4           0.7350     1.5110     1.3740 ha         1 M6H       0.131500
     16 H5           1.5840    -2.1870    -0.5950 ha         1 M6H       0.131500
     17 H7          -3.0970     2.1920    -0.2920 h1         1 M6H       0.050950
     18 H8          -3.3560     0.3680     1.2920 h1         1 M6H       0.050950
     19 H9          -4.5510    -0.0750     0.0730 h1         1 M6H       0.050950
     20 H12         -1.0080    -1.1090    -1.3030 h2         1 M6H       0.029700
     21 H13         -0.9950     1.1570    -1.4390 hn         1 M6H       0.358300
     22 H15         -3.1000    -1.5080    -0.9120 hn         1 M6H       0.358300
     23 CAH         -0.3880    -0.8900     0.7380 c3         1 M6H      -0.012100
     24 H6          -3.3420     1.1070    -1.6660 h1         1 M6H       0.050950
     25 H10         -0.7680    -0.4230     1.6500 hc         1 M6H       0.059700
     26 H11         -0.3700    -1.9700     0.9050 hc         1 M6H       0.059700
@<TRIPOS>BOND
     1     1     2 ar  
     2     1     3 ar  
     3     1    12 1   
     4     2     4 ar  
     5     2    13 1   
     6     3     5 ar  
     7     3    14 1   
     8     4     9 ar  
     9     4    15 1   
    10     5     9 ar  
    11     5    16 1   
    12     6     7 1   
    13     6    10 1   
    14     6    17 1   
    15     6    24 1   
    16     7    11 1   
    17     7    18 1   
    18     7    19 1   
    19     8    10 1   
    20     8    11 1   
    21     8    20 1   
    22     8    23 1   
    23     9    23 1   
    24    10    21 1   
    25    11    22 1   
    26    23    25 1   
    27    23    26 1   
@<TRIPOS>SUBSTRUCTURE
     1 M6H         1 TEMP              0 ****  ****    0 ROOT
