@<TRIPOS>MOLECULE
M6I
   27    28     1     0     0
SMALL
abcg2


@<TRIPOS>ATOM
      1 N1           8.1980     0.1740    20.7050 ns         1 M6I      -0.159000
      2 C4          11.4000    -0.3550    22.3620 ca         1 M6I       0.001000
      3 C5           9.5600    -0.0280    20.7090 c          1 M6I       0.671100
      4 C6           7.3560     0.3460    19.6030 ca         1 M6I      -0.060000
      5 C7           5.9950     0.5520    19.8560 ca         1 M6I      -0.137000
      6 C8           5.1270     0.7270    18.7950 ca         1 M6I      -0.133000
      7 C10          7.7720     0.3270    18.2650 ca         1 M6I       0.319900
      8 C9           5.6330     0.6940    17.5000 ca         1 M6I       0.308900
      9 N           10.0700    -0.1380    21.9830 ns         1 M6I      -0.163000
     10 N2           6.9270     0.4980    17.2440 nb         1 M6I      -0.641000
     11 C1          14.0130    -0.7950    23.2990 ca         1 M6I      -0.129000
     12 C11         12.4040    -0.7440    21.4700 ca         1 M6I      -0.126000
     13 C           13.6850    -0.9520    21.9620 ca         1 M6I       0.153000
     14 C2          13.0010    -0.4130    24.1740 ca         1 M6I      -0.072000
     15 O           10.2390    -0.1000    19.6930 o          1 M6I      -0.598100
     16 C3          11.7110    -0.1920    23.7190 ca         1 M6I      -0.170000
     17 CL          14.9360    -1.4400    20.8310 cl         1 M6I      -0.207000
     18 H1           7.7320     0.2070    21.5990 hn         1 M6I       0.147000
     19 H2           5.6340     0.5720    20.8770 ha         1 M6I       0.113000
     20 H3           4.0710     0.8870    18.9680 ha         1 M6I       0.124000
     21 H4           8.8100     0.1690    18.0220 h4         1 M6I       0.057100
     22 H5           4.9790     0.8290    16.6460 h4         1 M6I       0.024100
     23 H6           9.4350     0.0170    22.7510 hn         1 M6I       0.148000
     24 H7          15.0220    -0.9660    23.6460 ha         1 M6I       0.134000
     25 H8          12.1880    -0.8780    20.4250 ha         1 M6I       0.166000
     26 H9          13.2240    -0.2830    25.2250 ha         1 M6I       0.119000
     27 H10         10.9340     0.1090    24.4110 ha         1 M6I       0.112000
@<TRIPOS>BOND
     1     1     3 1   
     2     1     4 1   
     3     1    18 1   
     4     2     9 1   
     5     2    12 ar  
     6     2    16 ar  
     7     3     9 1   
     8     3    15 2   
     9     4     5 ar  
    10     4     7 ar  
    11     5     6 ar  
    12     5    19 1   
    13     6     8 ar  
    14     6    20 1   
    15     7    10 ar  
    16     7    21 1   
    17     8    10 ar  
    18     8    22 1   
    19     9    23 1   
    20    11    13 ar  
    21    11    14 ar  
    22    11    24 1   
    23    12    13 ar  
    24    12    25 1   
    25    13    17 1   
    26    14    16 ar  
    27    14    26 1   
    28    16    27 1   
@<TRIPOS>SUBSTRUCTURE
     1 M6I         1 TEMP              0 ****  ****    0 ROOT
