@<TRIPOS>MOLECULE
M6I
   27    28     1     0     0
SMALL
No Charge or Current Charge


@<TRIPOS>ATOM
      1 N1           8.2730     0.2270    20.5850 ns         1 M6I      -0.159000
      2 C4          11.4760    -0.3500    22.3350 ca         1 M6I       0.001000
      3 C5           9.6300    -0.0650    20.5700 c          1 M6I       0.671100
      4 C6           7.3200     0.3660    19.5350 ca         1 M6I      -0.060000
      5 C7           5.9920     0.6730    19.8870 ca         1 M6I      -0.137000
      6 C8           5.0390     0.8130    18.8640 ca         1 M6I      -0.133000
      7 C10          7.6280     0.2140    18.1580 ca         1 M6I       0.319900
      8 C9           5.4350     0.6450    17.5270 ca         1 M6I       0.308900
      9 N           10.1620    -0.0990    21.8500 ns         1 M6I      -0.163000
     10 N2           6.7060     0.3500    17.1710 nb         1 M6I      -0.641000
     11 C1          14.0310    -0.8290    23.4460 ca         1 M6I      -0.129000
     12 C11         12.5780    -0.6400    21.4990 ca         1 M6I      -0.126000
     13 C           13.8460    -0.8770    22.0560 ca         1 M6I       0.153000
     14 C2          12.9420    -0.5420    24.2840 ca         1 M6I      -0.072000
     15 O           10.2730    -0.2660    19.5470 o          1 M6I      -0.598100
     16 C3          11.6730    -0.3050    23.7280 ca         1 M6I      -0.170000
     17 Cl          15.2100    -1.2370    21.0050 cl         1 M6I      -0.207000
     18 H1           7.8870     0.3680    21.5100 hn         1 M6I       0.147000
     19 H2           5.7030     0.8000    20.9280 ha         1 M6I       0.113000
     20 H3           4.0040     1.0500    19.0970 ha         1 M6I       0.124000
     21 H4           8.6320    -0.0230    17.8160 h4         1 M6I       0.057100
     22 H5           4.7140     0.7490    16.7170 h4         1 M6I       0.024100
     23 H6           9.4910     0.0910    22.5830 hn         1 M6I       0.148000
     24 H7          15.0140    -1.0130    23.8700 ha         1 M6I       0.134000
     25 H8          12.4790    -0.6870    20.4200 ha         1 M6I       0.166000
     26 H9          13.0810    -0.5040    25.3630 ha         1 M6I       0.119000
     27 H10         10.8380    -0.0830    24.3890 ha         1 M6I       0.112000
@<TRIPOS>BOND
     1     1     3 1   
     2     1     4 1   
     3     1    18 1   
     4     2     9 1   
     5     2    12 ar  
     6     2    16 ar  
     7     3     9 1   
     8     3    15 2   
     9     4     5 ar  
    10     4     7 ar  
    11     5     6 ar  
    12     5    19 1   
    13     6     8 ar  
    14     6    20 1   
    15     7    10 ar  
    16     7    21 1   
    17     8    10 ar  
    18     8    22 1   
    19     9    23 1   
    20    11    13 ar  
    21    11    14 ar  
    22    11    24 1   
    23    12    13 ar  
    24    12    25 1   
    25    13    17 1   
    26    14    16 ar  
    27    14    26 1   
    28    16    27 1   
@<TRIPOS>SUBSTRUCTURE
     1 M6I         1 TEMP              0 ****  ****    0 ROOT
