@<TRIPOS>MOLECULE
M6J
   36    37     1     0     0
SMALL
bcc


@<TRIPOS>ATOM
      1 C13         -2.3490     2.2050     0.5620 c5         1 M6J      -0.090400
      2 C15         -2.3580    -0.1540    -0.3220 ca         1 M6J      -0.068300
      3 C17         -2.3910    -2.3330     0.7130 ca         1 M6J      -0.137500
      4 C20         -3.5370    -0.4750    -0.9850 ca         1 M6J      -0.111000
      5 C04          3.9440    -0.7100     0.1230 c          1 M6J       0.903600
      6 C06          2.3950    -0.6470     0.0560 c3         1 M6J       0.014500
      7 C07          1.9860     0.6150    -0.7180 c3         1 M6J      -0.127400
      8 C11          0.0100     2.2310     0.8110 c5         1 M6J       0.116000
      9 C12         -1.1970     3.1560     0.8560 c5         1 M6J      -0.099400
     10 C14         -1.7760     1.2290    -0.4810 c5         1 M6J       0.160000
     11 C16         -1.7870    -1.0960     0.5310 ca         1 M6J      -0.111000
     12 C18         -3.5730    -2.6460     0.0510 ca         1 M6J      -0.140000
     13 C19         -4.1460    -1.7100    -0.8000 ca         1 M6J      -0.137500
     14 N10         -0.3360     1.3020    -0.2580 n          1 M6J      -0.481800
     15 N21          1.7080    -0.6900     1.3350 n8         1 M6J      -0.900800
     16 O09          0.0860    -0.0920    -1.9560 o          1 M6J      -0.629100
     17 H1          -2.6230     1.6620     1.4690 hc         1 M6J       0.045200
     18 H2          -3.2470     2.7010     0.1940 hc         1 M6J       0.045200
     19 H3          -1.9320    -3.0590     1.3710 ha         1 M6J       0.119500
     20 H4          -3.9880     0.2470    -1.6570 ha         1 M6J       0.145000
     21 H9           2.0580    -1.5100    -0.5280 h1         1 M6J       0.058700
     22 H10          2.2970     1.4980    -0.1570 hc         1 M6J       0.062200
     23 H11          2.5200     0.6330    -1.6670 hc         1 M6J       0.062200
     24 H12          0.9320     2.7650     0.5950 h1         1 M6J       0.053700
     25 H13          0.1410     1.7010     1.7580 h1         1 M6J       0.053700
     26 H14         -1.1130     3.9170     0.0780 hc         1 M6J       0.042700
     27 H15         -1.2950     3.6630     1.8150 hc         1 M6J       0.042700
     28 H16         -2.0060     1.5910    -1.4890 h1         1 M6J       0.055700
     29 H17         -0.8500    -0.8750     1.0320 ha         1 M6J       0.145000
     30 H18         -4.0390    -3.6120     0.1930 ha         1 M6J       0.115000
     31 H19         -5.0640    -1.9420    -1.3240 ha         1 M6J       0.119500
     32 H30          1.8380    -1.6070     1.7430 hn         1 M6J       0.329800
     33 H5           2.1800    -0.0580     1.9710 hn         1 M6J       0.329800
     34 C08          0.5070     0.5930    -1.0290 c          1 M6J       0.682100
     35 O05          4.4760    -0.5810     1.2420 o          1 M6J      -0.834300
     36 OXT          4.5290    -0.8720    -0.9680 o          1 M6J      -0.834300
@<TRIPOS>BOND
     1     1     9 1   
     2     1    10 1   
     3     1    17 1   
     4     1    18 1   
     5     2     4 ar  
     6     2    10 1   
     7     2    11 ar  
     8     3    11 ar  
     9     3    12 ar  
    10     3    19 1   
    11     4    13 ar  
    12     4    20 1   
    13     5     6 1   
    14     5    35 1   
    15     5    36 1   
    16     6     7 1   
    17     6    15 1   
    18     6    21 1   
    19     7    22 1   
    20     7    23 1   
    21     7    34 1   
    22     8     9 1   
    23     8    14 1   
    24     8    24 1   
    25     8    25 1   
    26     9    26 1   
    27     9    27 1   
    28    10    14 1   
    29    10    28 1   
    30    11    29 1   
    31    12    13 ar  
    32    12    30 1   
    33    13    31 1   
    34    14    34 1   
    35    15    32 1   
    36    15    33 1   
    37    16    34 2   
@<TRIPOS>SUBSTRUCTURE
     1 M6J         1 TEMP              0 ****  ****    0 ROOT
