@<TRIPOS>MOLECULE
M6J
   36    37     1     0     0
SMALL
No Charge or Current Charge


@<TRIPOS>ATOM
      1 C13         -2.4280     2.1730     0.7540 c5         1 M6J      -0.090400
      2 C15         -2.4180    -0.0740    -0.3140 ca         1 M6J      -0.068300
      3 C17         -2.4790    -2.2490     0.8120 ca         1 M6J      -0.119500
      4 C20         -3.3900    -0.5430    -1.2210 ca         1 M6J      -0.093000
      5 C04          3.8910    -1.0670    -0.1790 c          1 M6J       0.693000
      6 C06          2.3720    -0.7040     0.0880 c3         1 M6J       0.014500
      7 C07          1.9920     0.6250    -0.6180 c3         1 M6J      -0.127400
      8 C11         -0.0310     2.4000     0.7880 c5         1 M6J       0.116000
      9 C12         -1.3270     3.2450     0.9190 c5         1 M6J      -0.099400
     10 C14         -1.8830     1.3590    -0.4550 c5         1 M6J       0.160000
     11 C16         -1.9670    -0.9450     0.7050 ca         1 M6J      -0.093000
     12 C18         -3.4470    -2.7020    -0.0970 ca         1 M6J      -0.122000
     13 C19         -3.9030    -1.8480    -1.1140 ca         1 M6J      -0.119500
     14 N10         -0.4200     1.3900    -0.2220 n          1 M6J      -0.414800
     15 N21          1.9470    -0.6690     1.5340 n8         1 M6J      -1.011200
     16 O09          0.1220     0.0560    -2.0070 o          1 M6J      -0.629100
     17 H1          -2.5140     1.5690     1.6650 hc         1 M6J       0.045200
     18 H2          -3.4150     2.6040     0.5540 hc         1 M6J       0.045200
     19 H3          -2.1230    -2.9090     1.6000 ha         1 M6J       0.101500
     20 H4          -3.7520     0.1090    -2.0130 ha         1 M6J       0.127000
     21 H9           1.7940    -1.5040    -0.3970 h1         1 M6J       0.058700
     22 H10          2.2740     1.4540     0.0370 hc         1 M6J       0.062200
     23 H11          2.5740     0.6900    -1.5440 hc         1 M6J       0.062200
     24 H12          0.8120     3.0240     0.4650 h1         1 M6J       0.053700
     25 H13          0.2320     1.9140     1.7380 h1         1 M6J       0.053700
     26 H14         -1.3870     3.9970     0.1230 hc         1 M6J       0.042700
     27 H15         -1.3870     3.7750     1.8760 hc         1 M6J       0.042700
     28 H16         -2.1420     1.8170    -1.4200 h1         1 M6J       0.055700
     29 H17         -1.2150    -0.6100     1.4170 ha         1 M6J       0.127000
     30 H18         -3.8440    -3.7120    -0.0150 ha         1 M6J       0.097000
     31 H19         -4.6530    -2.1960    -1.8200 ha         1 M6J       0.101500
     32 H30          2.1280    -1.5870     1.9590 hn         1 M6J       0.385000
     33 H5           2.5870    -0.0480     2.0450 hn         1 M6J       0.385000
     34 C08          0.5010     0.6610    -1.0100 c          1 M6J       0.615100
     35 O05          4.7560    -0.3900     0.3640 o          1 M6J      -0.729000
     36 OXT          4.1420    -2.0660    -0.8390 o          1 M6J      -0.729000
@<TRIPOS>BOND
     1     1     9 1   
     2     1    10 1   
     3     1    17 1   
     4     1    18 1   
     5     2     4 ar  
     6     2    10 1   
     7     2    11 ar  
     8     3    11 ar  
     9     3    12 ar  
    10     3    19 1   
    11     4    13 ar  
    12     4    20 1   
    13     5     6 1   
    14     5    35 1   
    15     5    36 1   
    16     6     7 1   
    17     6    15 1   
    18     6    21 1   
    19     7    22 1   
    20     7    23 1   
    21     7    34 1   
    22     8     9 1   
    23     8    14 1   
    24     8    24 1   
    25     8    25 1   
    26     9    26 1   
    27     9    27 1   
    28    10    14 1   
    29    10    28 1   
    30    11    29 1   
    31    12    13 ar  
    32    12    30 1   
    33    13    31 1   
    34    14    34 1   
    35    15    32 1   
    36    15    33 1   
    37    16    34 2   
@<TRIPOS>SUBSTRUCTURE
     1 M6J         1 TEMP              0 ****  ****    0 ROOT
