@<TRIPOS>MOLECULE
M6K
   47    49     1     0     0
SMALL
abcg2


@<TRIPOS>ATOM
      1 C10         52.1700   105.3140    73.5280 ce         1 M6K       0.333900
      2 C13         52.1140   107.5780    72.9910 c5         1 M6K       0.120300
      3 C04         51.1550   101.3770    74.8330 ca         1 M6K      -0.143900
      4 C05         52.2590   101.5850    74.0040 ca         1 M6K      -0.084000
      5 C06         52.5940   102.8560    73.5760 ca         1 M6K      -0.098000
      6 C07         51.8380   103.9620    73.9710 ca         1 M6K      -0.089900
      7 C08         50.7360   103.7530    74.8010 ca         1 M6K      -0.098000
      8 C09         50.3990   102.4780    75.2230 ca         1 M6K      -0.084000
      9 C14         51.3860   106.5470    73.8500 c5         1 M6K      -0.167700
     10 C15         52.4640   108.8490    73.7440 c3         1 M6K       0.173800
     11 C17         54.0520   109.8640    72.2060 c6         1 M6K       0.163300
     12 C18         54.3000   111.0760    71.3280 c6         1 M6K       0.166800
     13 C20         53.0080   112.4150    72.7820 c6         1 M6K       0.166800
     14 C21         52.7620   111.2140    73.6720 c6         1 M6K       0.163300
     15 C23         55.9670   113.6270    70.7230 c          1 M6K       0.721000
     16 N01         49.5250    99.8020    75.5530 n2         1 M6K      -0.831100
     17 N03         51.7610    99.0920    75.3130 nv         1 M6K      -1.076200
     18 N11         53.2100   105.5540    72.8320 n2         1 M6K      -0.251700
     19 N16         52.7830   109.9820    72.9030 n3         1 M6K      -0.724600
     20 N19         54.2780   112.3030    72.0950 n3         1 M6K      -0.677600
     21 O12         53.3010   106.8800    72.5430 os         1 M6K      -0.264000
     22 O24         56.0750   114.4780    69.8170 o          1 M6K      -0.728500
     23 O25         56.8810   112.9590    71.2400 o          1 M6K      -0.728500
     24 H2          51.5260   107.8360    72.1050 h1         1 M6K       0.082700
     25 H3          52.8530   100.7480    73.6600 ha         1 M6K       0.125500
     26 H4          53.4440   102.9880    72.9200 ha         1 M6K       0.126500
     27 H5          50.1320   104.5890    75.1270 ha         1 M6K       0.126500
     28 H6          49.5430   102.3350    75.8680 ha         1 M6K       0.125500
     29 H7          51.4370   106.7670    74.9210 hc         1 M6K       0.068700
     30 H8          50.3310   106.4570    73.5880 hc         1 M6K       0.068700
     31 H9          51.5770   109.1190    74.3240 h1         1 M6K       0.031200
     32 H10         53.2570   108.6250    74.4800 h1         1 M6K       0.031200
     33 H11         54.0460   108.9800    71.5690 h1         1 M6K       0.030950
     34 H12         54.8900   109.7470    72.9160 h1         1 M6K       0.030950
     35 H13         55.2730   110.9660    70.8480 h1         1 M6K       0.033200
     36 H14         53.5420   111.0920    70.5230 h1         1 M6K       0.033200
     37 H15         53.0110   113.3170    73.3990 h1         1 M6K       0.033200
     38 H16         52.1660   112.5140    72.0730 h1         1 M6K       0.033200
     39 H17         51.7840   111.3200    74.1470 h1         1 M6K       0.030950
     40 H18         53.5140   111.2020    74.4800 h1         1 M6K       0.030950
     41 H19         54.3190   114.3550    71.8670 h1         1 M6K       0.011200
     42 H20         53.8260   113.5100    70.4160 h1         1 M6K       0.011200
     43 H21         49.3740    98.8500    75.8750 hn         1 M6K       0.366400
     44 H22         52.7030    99.4100    75.4760 hn         1 M6K       0.460500
     45 H23         51.5610    98.2000    75.7390 hn         1 M6K       0.460500
     46 C22         54.5290   113.4620    71.2660 c3         1 M6K       0.020800
     47 C02         50.7560   100.0150    75.2850 ce         1 M6K       0.663800
@<TRIPOS>BOND
     1     1     6 1   
     2     1     9 1   
     3     1    18 2   
     4     2     9 1   
     5     2    10 1   
     6     2    21 1   
     7     2    24 1   
     8     3     4 ar  
     9     3     8 ar  
    10     3    47 1   
    11     4     5 ar  
    12     4    25 1   
    13     5     6 ar  
    14     5    26 1   
    15     6     7 ar  
    16     7     8 ar  
    17     7    27 1   
    18     8    28 1   
    19     9    29 1   
    20     9    30 1   
    21    10    19 1   
    22    10    31 1   
    23    10    32 1   
    24    11    12 1   
    25    11    19 1   
    26    11    33 1   
    27    11    34 1   
    28    12    20 1   
    29    12    35 1   
    30    12    36 1   
    31    13    14 1   
    32    13    20 1   
    33    13    37 1   
    34    13    38 1   
    35    14    19 1   
    36    14    39 1   
    37    14    40 1   
    38    15    22 1   
    39    15    23 1   
    40    15    46 1   
    41    16    43 1   
    42    16    47 2   
    43    17    44 1   
    44    17    45 1   
    45    17    47 1   
    46    18    21 1   
    47    20    46 1   
    48    41    46 1   
    49    42    46 1   
@<TRIPOS>SUBSTRUCTURE
     1 M6K         1 TEMP              0 ****  ****    0 ROOT
