@<TRIPOS>MOLECULE
M6K
   47    49     1     0     0
SMALL
No Charge or Current Charge


@<TRIPOS>ATOM
      1 C10         52.3870   105.3080    74.0010 ce         1 M6K       0.333900
      2 C13         52.3390   107.5760    73.4510 c5         1 M6K       0.120300
      3 C04         51.0590   101.2190    74.6940 ca         1 M6K      -0.143900
      4 C05         52.2350   101.4840    73.9530 ca         1 M6K      -0.084000
      5 C06         52.6640   102.8050    73.7300 ca         1 M6K      -0.098000
      6 C07         51.9220   103.9000    74.2240 ca         1 M6K      -0.089900
      7 C08         50.7430   103.6380    74.9510 ca         1 M6K      -0.098000
      8 C09         50.3130   102.3190    75.1740 ca         1 M6K      -0.084000
      9 C14         51.6170   106.5610    74.3750 c5         1 M6K      -0.167700
     10 C15         52.4230   109.0270    74.0090 c3         1 M6K       0.173800
     11 C17         54.0680   109.9480    72.3550 c6         1 M6K       0.163300
     12 C18         54.3620   111.0910    71.3280 c6         1 M6K       0.166800
     13 C20         52.9060   112.6010    72.5860 c6         1 M6K       0.166800
     14 C21         52.6200   111.4630    73.6200 c6         1 M6K       0.163300
     15 C23         55.9500   113.5980    70.2760 c          1 M6K       0.721000
     16 N01         49.3790    99.5360    75.2500 n2         1 M6K      -0.831100
     17 N03         51.4680    98.8090    74.8480 nv         1 M6K      -1.076200
     18 N11         53.5330   105.6060    73.4820 n2         1 M6K      -0.251700
     19 N16         52.7330   110.0980    73.0200 n3         1 M6K      -0.724600
     20 N19         54.2420   112.4530    71.9330 n3         1 M6K      -0.677600
     21 O12         53.6520   106.9930    73.2900 os         1 M6K      -0.264000
     22 O24         56.0690   113.1190    69.1550 o          1 M6K      -0.728500
     23 O25         56.8800   114.1220    70.8790 o          1 M6K      -0.728500
     24 H2          51.8500   107.5990    72.4680 h1         1 M6K       0.082700
     25 H3          52.8220   100.6710    73.5320 ha         1 M6K       0.125500
     26 H4          53.5760   102.9700    73.1610 ha         1 M6K       0.126500
     27 H5          50.1490   104.4560    75.3530 ha         1 M6K       0.126500
     28 H6          49.3950   102.1540    75.7350 ha         1 M6K       0.125500
     29 H7          51.7460   106.8000    75.4360 hc         1 M6K       0.068700
     30 H8          50.5460   106.4870    74.1590 hc         1 M6K       0.068700
     31 H9          51.4460   109.2490    74.4620 h1         1 M6K       0.031200
     32 H10         53.1570   109.0430    74.8270 h1         1 M6K       0.031200
     33 H11         54.1250   108.9940    71.8150 h1         1 M6K       0.030950
     34 H12         54.8670   109.9410    73.1110 h1         1 M6K       0.030950
     35 H13         55.3730   110.9400    70.9240 h1         1 M6K       0.033200
     36 H14         53.6610   110.9910    70.4860 h1         1 M6K       0.033200
     37 H15         52.8420   113.5690    73.1040 h1         1 M6K       0.033200
     38 H16         52.1110   112.5900    71.8260 h1         1 M6K       0.033200
     39 H17         51.6120   111.6130    74.0330 h1         1 M6K       0.030950
     40 H18         53.3270   111.5660    74.4560 h1         1 M6K       0.030950
     41 H19         54.4110   114.5220    71.4750 h1         1 M6K       0.011200
     42 H20         53.7870   113.5390    70.1590 h1         1 M6K       0.011200
     43 H21         49.2490    98.5240    75.1410 hn         1 M6K       0.366400
     44 H22         52.4380    99.1030    74.8870 hn         1 M6K       0.460500
     45 H23         51.2500    97.9810    75.3900 hn         1 M6K       0.460500
     46 C22         54.5370   113.5590    70.9630 c3         1 M6K       0.020800
     47 C02         50.5700    99.8160    74.9120 ce         1 M6K       0.663800
@<TRIPOS>BOND
     1     1     6 1   
     2     1     9 1   
     3     1    18 2   
     4     2     9 1   
     5     2    10 1   
     6     2    21 1   
     7     2    24 1   
     8     3     4 ar  
     9     3     8 ar  
    10     3    47 1   
    11     4     5 ar  
    12     4    25 1   
    13     5     6 ar  
    14     5    26 1   
    15     6     7 ar  
    16     7     8 ar  
    17     7    27 1   
    18     8    28 1   
    19     9    29 1   
    20     9    30 1   
    21    10    19 1   
    22    10    31 1   
    23    10    32 1   
    24    11    12 1   
    25    11    19 1   
    26    11    33 1   
    27    11    34 1   
    28    12    20 1   
    29    12    35 1   
    30    12    36 1   
    31    13    14 1   
    32    13    20 1   
    33    13    37 1   
    34    13    38 1   
    35    14    19 1   
    36    14    39 1   
    37    14    40 1   
    38    15    22 1   
    39    15    23 1   
    40    15    46 1   
    41    16    43 1   
    42    16    47 2   
    43    17    44 1   
    44    17    45 1   
    45    17    47 1   
    46    18    21 1   
    47    20    46 1   
    48    41    46 1   
    49    42    46 1   
@<TRIPOS>SUBSTRUCTURE
     1 M6K         1 TEMP              0 ****  ****    0 ROOT
