@<TRIPOS>MOLECULE
M6L
   71    72     1     0     0
SMALL
abcg2


@<TRIPOS>ATOM
      1 N1          12.4630   -17.2190    -0.8480 ns         1 M6L      -0.504900
      2 N3          14.1650   -21.5110     0.0570 ns         1 M6L      -0.499900
      3 C4          13.1740   -20.5880    -0.4490 c3         1 M6L       0.120700
      4 C5          13.8310   -19.2330    -0.7480 c3         1 M6L       0.067300
      5 C6          12.8360   -18.3360    -1.4840 c          1 M6L       0.566100
      6 C7          11.5100   -16.3020    -1.4230 c3         1 M6L       0.054700
      7 C8          10.1050   -16.8550    -1.4830 ca         1 M6L       0.333300
      8 C10          8.2650   -18.0260    -0.5020 ca         1 M6L      -0.072000
      9 C15         17.0770   -22.7070    -0.1980 c3         1 M6L      -0.084400
     10 C17         18.1490   -23.3710     2.0030 c3         1 M6L      -0.090600
     11 C20         13.6560   -27.5950    -0.5460 c3         1 M6L       0.231900
     12 C21         13.9650   -28.7940    -1.3910 ca         1 M6L      -0.101300
     13 C22         14.3250   -30.0020    -0.8050 ca         1 M6L      -0.085000
     14 C24         14.5570   -31.0150    -2.9740 ca         1 M6L      -0.099000
     15 C26         13.9050   -28.7070    -2.7800 ca         1 M6L      -0.085000
     16 C1          10.0320   -21.6600     1.5910 c3         1 M6L      -0.087100
     17 C11          7.5480   -17.7860    -1.6660 ca         1 M6L      -0.161000
     18 C12          8.1710   -17.0720    -2.6760 ca         1 M6L       0.343900
     19 C14         15.7250   -23.3550     0.1090 c3         1 M6L       0.046700
     20 C18         19.5500   -22.6080     0.0670 c3         1 M6L      -0.090600
     21 C23         14.6170   -31.1100    -1.5920 ca         1 M6L      -0.116000
     22 C25         14.2010   -29.8090    -3.5680 ca         1 M6L      -0.116000
     23 C3          11.9920   -20.4890     0.5140 c3         1 M6L      -0.088400
     24 C9           9.5600   -17.5480    -0.4050 ca         1 M6L      -0.156000
     25 N2           9.4170   -16.6180    -2.5930 nb         1 M6L      -0.659000
     26 N4          15.7270   -24.7330    -0.3010 ns         1 M6L      -0.473900
     27 O1          14.3060   -18.6820     0.4530 oh         1 M6L      -0.666000
     28 O2          12.4180   -18.6550    -2.5880 o          1 M6L      -0.579100
     29 O4          13.7070   -25.1830     0.6270 o          1 M6L      -0.547000
     30 O5          14.7550   -26.6860    -0.6860 os         1 M6L      -0.453100
     31 H9          12.8360   -17.0360     0.0690 hn         1 M6L       0.328500
     32 H16         14.5300   -21.3320     0.9800 hn         1 M6L       0.318500
     33 H8          12.8180   -20.9890    -1.3980 h1         1 M6L       0.109700
     34 H35         14.6510   -19.4170    -1.4540 h1         1 M6L       0.069700
     35 H11         11.8140   -16.0120    -2.4300 h1         1 M6L       0.069200
     36 H10         11.5200   -15.3980    -0.8130 h1         1 M6L       0.069200
     37 H13          7.8200   -18.5730     0.3200 ha         1 M6L       0.118000
     38 H19         17.2290   -22.7070    -1.2820 hc         1 M6L       0.053700
     39 H18         17.0200   -21.6570     0.1050 hc         1 M6L       0.053700
     40 H23         19.0520   -23.7690     2.4660 hc         1 M6L       0.035533
     41 H22         17.9920   -22.3620     2.3930 hc         1 M6L       0.035533
     42 H21         17.3150   -23.9910     2.3370 hc         1 M6L       0.035533
     43 H29         12.7330   -27.1150    -0.8800 h1         1 M6L       0.057700
     44 H28         13.5310   -27.8810     0.5000 h1         1 M6L       0.057700
     45 H30         14.3750   -30.0810     0.2750 ha         1 M6L       0.116500
     46 H32         14.7850   -31.8760    -3.5890 ha         1 M6L       0.112000
     47 H34         13.6190   -27.7730    -3.2500 ha         1 M6L       0.116500
     48 H2           9.5000   -22.6060     1.7000 hc         1 M6L       0.029700
     49 H1          10.3270   -21.3290     2.5880 hc         1 M6L       0.029700
     50 H3           9.3260   -20.9270     1.1950 hc         1 M6L       0.029700
     51 H14          6.5350   -18.1420    -1.7900 ha         1 M6L       0.124000
     52 H15          7.6430   -16.8590    -3.6000 h4         1 M6L       0.019100
     53 H17         15.5410   -23.3040     1.1860 h1         1 M6L       0.079700
     54 H20         18.3780   -24.3860     0.1360 hc         1 M6L       0.053700
     55 H25         20.4380   -23.0700     0.5010 hc         1 M6L       0.035533
     56 H26         19.6730   -22.6040    -1.0180 hc         1 M6L       0.035533
     57 H24         19.5190   -21.5690     0.4020 hc         1 M6L       0.035533
     58 H5          11.9120   -22.5710     1.0810 hc         1 M6L       0.053200
     59 H4          10.9230   -22.1630    -0.3030 hc         1 M6L       0.053200
     60 H31         14.8920   -32.0460    -1.1230 ha         1 M6L       0.114000
     61 H33         14.1490   -29.7300    -4.6460 ha         1 M6L       0.114000
     62 H7          12.3320   -20.1310     1.4910 hc         1 M6L       0.047700
     63 H6          11.2920   -19.7380     0.1380 hc         1 M6L       0.047700
     64 H12         10.1420   -17.7090     0.4940 ha         1 M6L       0.120000
     65 H27         16.3730   -25.0160    -1.0230 hn         1 M6L       0.332500
     66 H36         15.0800   -18.1410     0.2700 ho         1 M6L       0.449000
     67 C13         14.6260   -22.5760    -0.6200 c          1 M6L       0.581100
     68 C2          11.2430   -21.8050     0.6800 c3         1 M6L      -0.080400
     69 C16         18.2850   -23.3520     0.4840 c3         1 M6L      -0.058700
     70 C19         14.6470   -25.5070    -0.0700 c          1 M6L       0.640100
     71 O3          14.2490   -22.8970    -1.7350 o          1 M6L      -0.593100
@<TRIPOS>BOND
     1     1     5 1   
     2     1     6 1   
     3     1    31 1   
     4     2     3 1   
     5     2    32 1   
     6     2    67 1   
     7     3     4 1   
     8     3    23 1   
     9     3    33 1   
    10     4     5 1   
    11     4    27 1   
    12     4    34 1   
    13     5    28 2   
    14     6     7 1   
    15     6    35 1   
    16     6    36 1   
    17     7    24 ar  
    18     7    25 ar  
    19     8    17 ar  
    20     8    24 ar  
    21     8    37 1   
    22     9    19 1   
    23     9    38 1   
    24     9    39 1   
    25     9    69 1   
    26    10    40 1   
    27    10    41 1   
    28    10    42 1   
    29    10    69 1   
    30    11    12 1   
    31    11    30 1   
    32    11    43 1   
    33    11    44 1   
    34    12    13 ar  
    35    12    15 ar  
    36    13    21 ar  
    37    13    45 1   
    38    14    21 ar  
    39    14    22 ar  
    40    14    46 1   
    41    15    22 ar  
    42    15    47 1   
    43    16    48 1   
    44    16    49 1   
    45    16    50 1   
    46    16    68 1   
    47    17    18 ar  
    48    17    51 1   
    49    18    25 ar  
    50    18    52 1   
    51    19    26 1   
    52    19    53 1   
    53    19    67 1   
    54    20    55 1   
    55    20    56 1   
    56    20    57 1   
    57    20    69 1   
    58    21    60 1   
    59    22    61 1   
    60    23    62 1   
    61    23    63 1   
    62    23    68 1   
    63    24    64 1   
    64    26    65 1   
    65    26    70 1   
    66    27    66 1   
    67    29    70 2   
    68    30    70 1   
    69    54    69 1   
    70    58    68 1   
    71    59    68 1   
    72    67    71 2   
@<TRIPOS>SUBSTRUCTURE
     1 M6L         1 TEMP              0 ****  ****    0 ROOT
