@<TRIPOS>MOLECULE
M6L
   71    72     1     0     0
SMALL
No Charge or Current Charge


@<TRIPOS>ATOM
      1 N1          12.5700   -16.8570    -0.6030 ns         1 M6L      -0.504900
      2 N3          14.0270   -21.3190    -0.3180 ns         1 M6L      -0.499900
      3 C4          13.1640   -20.2720    -0.8800 c3         1 M6L       0.120700
      4 C5          13.9280   -18.9150    -0.8890 c3         1 M6L       0.067300
      5 C6          13.0520   -17.7820    -1.5060 c          1 M6L       0.566100
      6 C7          11.6190   -15.7790    -0.9280 c3         1 M6L       0.054700
      7 C8          10.1780   -16.2690    -1.0890 ca         1 M6L       0.333300
      8 C10          8.2560   -17.5130    -0.2740 ca         1 M6L      -0.072000
      9 C15         16.6900   -22.9510    -0.1600 c3         1 M6L      -0.084400
     10 C17         17.4130   -23.4210     2.2740 c3         1 M6L      -0.090600
     11 C20         14.9580   -28.3640     0.0200 c3         1 M6L       0.231900
     12 C21         14.8510   -29.4250    -1.0660 ca         1 M6L      -0.101300
     13 C22         16.0140   -29.9790    -1.6370 ca         1 M6L      -0.085000
     14 C24         14.6520   -31.3920    -3.0780 ca         1 M6L      -0.099000
     15 C26         13.5870   -29.8610    -1.5120 ca         1 M6L      -0.085000
     16 C1           9.6210   -21.4150     0.5200 c3         1 M6L      -0.087100
     17 C11          7.5860   -17.1350    -1.4470 ca         1 M6L      -0.161000
     18 C12          8.2520   -16.3300    -2.3880 ca         1 M6L       0.343900
     19 C14         15.2260   -23.4720    -0.0820 c3         1 M6L       0.046700
     20 C18         19.1590   -23.2090     0.4390 c3         1 M6L      -0.090600
     21 C23         15.9150   -30.9600    -2.6390 ca         1 M6L      -0.116000
     22 C25         13.4880   -30.8420    -2.5150 ca         1 M6L      -0.116000
     23 C3          11.8010   -20.2170    -0.1320 c3         1 M6L      -0.088400
     24 C9           9.5750   -17.0670    -0.0950 ca         1 M6L      -0.156000
     25 N2           9.5240   -15.9000    -2.2180 nb         1 M6L      -0.659000
     26 N4          15.1280   -24.8620    -0.5790 ns         1 M6L      -0.473900
     27 O1          14.4240   -18.5990     0.4470 oh         1 M6L      -0.666000
     28 O2          12.8100   -17.7090    -2.7020 o          1 M6L      -0.579100
     29 O4          15.1490   -26.0010     1.4170 o          1 M6L      -0.547000
     30 O5          15.0040   -27.0740    -0.6100 os         1 M6L      -0.453100
     31 H9          12.8400   -17.0060     0.3650 hn         1 M6L       0.328500
     32 H16         14.5110   -21.1060     0.5470 hn         1 M6L       0.318500
     33 H8          12.9500   -20.5210    -1.9290 h1         1 M6L       0.109700
     34 H35         14.7830   -19.0310    -1.5700 h1         1 M6L       0.069700
     35 H11         11.9480   -15.2820    -1.8510 h1         1 M6L       0.069200
     36 H10         11.6480   -15.0330    -0.1240 h1         1 M6L       0.069200
     37 H13          7.7680   -18.1340     0.4750 ha         1 M6L       0.118000
     38 H19         17.0290   -23.0430    -1.1990 hc         1 M6L       0.053700
     39 H18         16.7030   -21.8770     0.0670 hc         1 M6L       0.053700
     40 H23         18.1610   -23.9220     2.9000 hc         1 M6L       0.035533
     41 H22         17.4280   -22.3510     2.5140 hc         1 M6L       0.035533
     42 H21         16.4310   -23.8200     2.5510 hc         1 M6L       0.035533
     43 H29         14.0940   -28.4380     0.6940 h1         1 M6L       0.057700
     44 H28         15.8650   -28.5390     0.6160 h1         1 M6L       0.057700
     45 H30         16.9960   -29.6480    -1.3040 ha         1 M6L       0.116500
     46 H32         14.5750   -32.1510    -3.8540 ha         1 M6L       0.112000
     47 H34         12.6810   -29.4380    -1.0830 ha         1 M6L       0.116500
     48 H2           9.0950   -22.3770     0.5000 hc         1 M6L       0.029700
     49 H1           9.7160   -21.0980     1.5660 hc         1 M6L       0.029700
     50 H3           9.0060   -20.6780    -0.0110 hc         1 M6L       0.029700
     51 H14          6.5640   -17.4540    -1.6320 ha         1 M6L       0.124000
     52 H15          7.7530   -16.0210    -3.3050 h4         1 M6L       0.019100
     53 H17         14.8790   -23.4390     0.9580 h1         1 M6L       0.079700
     54 H20         17.6670   -24.7330     0.5870 hc         1 M6L       0.053700
     55 H25         19.8840   -23.7400     1.0680 hc         1 M6L       0.035533
     56 H26         19.4000   -23.4280    -0.6080 hc         1 M6L       0.035533
     57 H24         19.2850   -22.1320     0.6030 hc         1 M6L       0.035533
     58 H5          11.5760   -22.3210     0.3900 hc         1 M6L       0.053200
     59 H4          10.8800   -21.8890    -1.1730 hc         1 M6L       0.053200
     60 H31         16.8160   -31.3840    -3.0760 ha         1 M6L       0.114000
     61 H33         12.5100   -31.1740    -2.8550 ha         1 M6L       0.114000
     62 H7          11.9690   -19.9070     0.9070 hc         1 M6L       0.047700
     63 H6          11.1710   -19.4490    -0.5930 hc         1 M6L       0.047700
     64 H12         10.1270   -17.3380     0.8010 ha         1 M6L       0.120000
     65 H27         15.0360   -25.0160    -1.5760 hn         1 M6L       0.332500
     66 H36         15.1730   -17.9670     0.3480 ho         1 M6L       0.449000
     67 C13         14.2630   -22.5530    -0.8880 c          1 M6L       0.581100
     68 C2          11.0080   -21.5460    -0.1390 c3         1 M6L      -0.080400
     69 C16         17.7160   -23.6530     0.7740 c3         1 M6L      -0.058700
     70 C19         15.1070   -25.9850     0.1980 c          1 M6L       0.640100
     71 O3          13.7410   -22.8870    -1.9440 o          1 M6L      -0.593100
@<TRIPOS>BOND
     1     1     5 1   
     2     1     6 1   
     3     1    31 1   
     4     2     3 1   
     5     2    32 1   
     6     2    67 1   
     7     3     4 1   
     8     3    23 1   
     9     3    33 1   
    10     4     5 1   
    11     4    27 1   
    12     4    34 1   
    13     5    28 2   
    14     6     7 1   
    15     6    35 1   
    16     6    36 1   
    17     7    24 ar  
    18     7    25 ar  
    19     8    17 ar  
    20     8    24 ar  
    21     8    37 1   
    22     9    19 1   
    23     9    38 1   
    24     9    39 1   
    25     9    69 1   
    26    10    40 1   
    27    10    41 1   
    28    10    42 1   
    29    10    69 1   
    30    11    12 1   
    31    11    30 1   
    32    11    43 1   
    33    11    44 1   
    34    12    13 ar  
    35    12    15 ar  
    36    13    21 ar  
    37    13    45 1   
    38    14    21 ar  
    39    14    22 ar  
    40    14    46 1   
    41    15    22 ar  
    42    15    47 1   
    43    16    48 1   
    44    16    49 1   
    45    16    50 1   
    46    16    68 1   
    47    17    18 ar  
    48    17    51 1   
    49    18    25 ar  
    50    18    52 1   
    51    19    26 1   
    52    19    53 1   
    53    19    67 1   
    54    20    55 1   
    55    20    56 1   
    56    20    57 1   
    57    20    69 1   
    58    21    60 1   
    59    22    61 1   
    60    23    62 1   
    61    23    63 1   
    62    23    68 1   
    63    24    64 1   
    64    26    65 1   
    65    26    70 1   
    66    27    66 1   
    67    29    70 2   
    68    30    70 1   
    69    54    69 1   
    70    58    68 1   
    71    59    68 1   
    72    67    71 2   
@<TRIPOS>SUBSTRUCTURE
     1 M6L         1 TEMP              0 ****  ****    0 ROOT
