@<TRIPOS>MOLECULE
M6M
   68    70     1     0     0
SMALL
bcc


@<TRIPOS>ATOM
      1 C21         -3.5830    -2.7490     2.0230 cc         1 M6M      -0.347600
      2 C22         -4.8000    -3.3320     2.1410 cd         1 M6M       0.279000
      3 C23         -5.4580    -4.1040     3.2170 c3         1 M6M      -0.134400
      4 O24         -5.4930    -3.1210     1.0120 os         1 M6M      -0.107100
      5 N25         -4.7530    -2.4040     0.1390 nd         1 M6M      -0.353300
      6 C20         -3.6150    -2.1790     0.7310 cc         1 M6M       0.289800
      7 C18         -2.5300    -1.3970     0.0780 c          1 M6M       0.596600
      8 O19         -1.5050    -1.1470     0.6920 o          1 M6M      -0.597100
      9 C13         -4.3890     2.6430     2.2990 c6         1 M6M      -0.074400
     10 C15         -4.8420     3.3010    -0.0930 c6         1 M6M       0.111700
     11 C04         -0.5030    -0.8700    -2.0270 c          1 M6M       0.671100
     12 C06         -1.8610    -0.1630    -1.9110 c3         1 M6M       0.055700
     13 C07         -1.8240     1.2550    -1.3380 c3         1 M6M      -0.188400
     14 C08         -3.2290     1.8510    -1.3070 c          1 M6M       0.674100
     15 C11         -2.5630     3.1730     0.6660 c6         1 M6M       0.089000
     16 C12         -2.9320     2.3900     1.9210 c6         1 M6M      -0.107400
     17 C14         -5.3330     2.4880     1.1060 c6         1 M6M      -0.103400
     18 C16         -5.8610     3.3710    -1.2190 c3         1 M6M      -0.083100
     19 N10         -3.4790     2.8400    -0.4210 n          1 M6M      -0.456800
     20 N17         -2.7750    -1.0020    -1.1740 ns         1 M6M      -0.534900
     21 O09         -4.0570     1.4440    -2.1100 o          1 M6M      -0.613100
     22 N03          0.5730    -0.0800    -2.1040 ns         1 M6M      -0.563900
     23 C02          1.9070    -0.5890    -2.3100 c3         1 M6M       0.035700
     24 C26          2.8890     0.4790    -1.8340 c          1 M6M       0.666100
     25 O27          2.5610     1.6530    -1.7500 o          1 M6M      -0.608100
     26 C01          2.1800    -0.9240    -3.7780 c3         1 M6M      -0.110100
     27 C29          5.2320     0.8450    -1.1590 c3         1 M6M       0.156300
     28 C30          5.7590     0.4410     0.1910 ca         1 M6M      -0.179300
     29 C31          7.0360    -0.0850     0.3490 ca         1 M6M      -0.069000
     30 C32          7.5280    -0.4670     1.5900 ca         1 M6M      -0.191000
     31 C33          6.7080    -0.3150     2.6890 ca         1 M6M       0.172900
     32 C35          5.4290     0.2020     2.5930 ca         1 M6M      -0.220000
     33 C36          4.9870     0.5690     1.3380 ca         1 M6M       0.184900
     34 F34          7.1560    -0.6790     3.8970 f          1 M6M      -0.133900
     35 F37          3.7520     1.0750     1.2290 f          1 M6M      -0.124900
     36 N28          4.1200     0.0190    -1.5760 ns         1 M6M      -0.566900
     37 H4          -2.7850    -2.7290     2.7440 ha         1 M6M       0.186000
     38 H21         -6.3760    -3.6150     3.5470 hc         1 M6M       0.063367
     39 H22         -5.7170    -5.1080     2.8810 hc         1 M6M       0.063367
     40 H23         -4.7900    -4.1890     4.0700 hc         1 M6M       0.063367
     41 H1          -4.6920     1.9790     3.1110 hc         1 M6M       0.040700
     42 H2          -4.4800     3.6650     2.6830 hc         1 M6M       0.040700
     43 H3          -4.7010     4.3330     0.2460 h1         1 M6M       0.044700
     44 H9          -2.2480    -0.1160    -2.9310 h1         1 M6M       0.094700
     45 H10         -1.3490     1.2320    -0.3610 hc         1 M6M       0.079700
     46 H11         -1.2200     1.9130    -1.9720 hc         1 M6M       0.079700
     47 H12         -2.6550     4.2450     0.8570 h1         1 M6M       0.055700
     48 H13         -1.5290     3.0130     0.3730 h1         1 M6M       0.055700
     49 H14         -2.2720     2.6810     2.7420 hc         1 M6M       0.054700
     50 H15         -2.7620     1.3230     1.7440 hc         1 M6M       0.054700
     51 H16         -5.4170     1.4370     0.8110 hc         1 M6M       0.052200
     52 H17         -6.3380     2.8180     1.3830 hc         1 M6M       0.052200
     53 H18         -6.2380     2.3980    -1.5190 hc         1 M6M       0.047367
     54 H19         -6.7030     3.9630    -0.8570 hc         1 M6M       0.047367
     55 H20         -5.4630     3.8770    -2.0990 hc         1 M6M       0.047367
     56 H30         -3.6620    -1.2250    -1.5970 hn         1 M6M       0.355500
     57 H29          0.4880     0.9230    -2.0420 hn         1 M6M       0.339500
     58 H8           2.0380    -1.4900    -1.7070 h1         1 M6M       0.084700
     59 H5           1.4750    -1.6760    -4.1280 hc         1 M6M       0.050033
     60 H6           2.0810    -0.0370    -4.4030 hc         1 M6M       0.050033
     61 H7           3.1850    -1.3250    -3.9080 hc         1 M6M       0.050033
     62 H24          4.9040     1.8830    -1.1570 h1         1 M6M       0.069700
     63 H25          6.0370     0.7680    -1.8920 h1         1 M6M       0.069700
     64 H26          7.6670    -0.1990    -0.5240 ha         1 M6M       0.138000
     65 H27          8.5240    -0.8750     1.6940 ha         1 M6M       0.157000
     66 H28          4.7980     0.3190     3.4650 ha         1 M6M       0.172000
     67 H31          4.2920    -0.9710    -1.6620 hn         1 M6M       0.319500
     68 O05         -0.4450    -2.0860    -2.1070 o          1 M6M      -0.594100
@<TRIPOS>BOND
     1     1     2 2   
     2     1     6 1   
     3     1    37 1   
     4     2     3 1   
     5     2     4 1   
     6     3    38 1   
     7     3    39 1   
     8     3    40 1   
     9     4     5 1   
    10     5     6 2   
    11     6     7 1   
    12     7     8 2   
    13     7    20 1   
    14     9    16 1   
    15     9    17 1   
    16     9    41 1   
    17     9    42 1   
    18    10    17 1   
    19    10    18 1   
    20    10    19 1   
    21    10    43 1   
    22    11    12 1   
    23    11    22 1   
    24    11    68 2   
    25    12    13 1   
    26    12    20 1   
    27    12    44 1   
    28    13    14 1   
    29    13    45 1   
    30    13    46 1   
    31    14    19 1   
    32    14    21 2   
    33    15    16 1   
    34    15    19 1   
    35    15    47 1   
    36    15    48 1   
    37    16    49 1   
    38    16    50 1   
    39    17    51 1   
    40    17    52 1   
    41    18    53 1   
    42    18    54 1   
    43    18    55 1   
    44    20    56 1   
    45    22    23 1   
    46    22    57 1   
    47    23    24 1   
    48    23    26 1   
    49    23    58 1   
    50    24    25 2   
    51    24    36 1   
    52    26    59 1   
    53    26    60 1   
    54    26    61 1   
    55    27    28 1   
    56    27    36 1   
    57    27    62 1   
    58    27    63 1   
    59    28    29 ar  
    60    28    33 ar  
    61    29    30 ar  
    62    29    64 1   
    63    30    31 ar  
    64    30    65 1   
    65    31    32 ar  
    66    31    34 1   
    67    32    33 ar  
    68    32    66 1   
    69    33    35 1   
    70    36    67 1   
@<TRIPOS>SUBSTRUCTURE
     1 M6M         1 TEMP              0 ****  ****    0 ROOT
