@<TRIPOS>MOLECULE
M6M
   68    70     1     0     0
SMALL
No Charge or Current Charge


@<TRIPOS>ATOM
      1 C21         -4.7340    -1.9440     1.9970 cc         1 M6M      -0.199000
      2 C22         -5.9450    -2.5260     1.8380 cd         1 M6M       0.169300
      3 C23         -6.9120    -3.0700     2.8500 c3         1 M6M      -0.134400
      4 O24         -6.2590    -2.5810     0.5070 os         1 M6M      -0.062700
      5 N25         -5.1760    -1.9900    -0.2400 nd         1 M6M      -0.353300
      6 C20         -4.3000    -1.6280     0.6940 cc         1 M6M       0.224500
      7 C18         -2.9900    -0.9440     0.4440 c          1 M6M       0.529600
      8 O19         -2.1920    -0.6400     1.3240 o          1 M6M      -0.597100
      9 C13         -5.9510     3.0200     1.9400 c6         1 M6M      -0.074400
     10 C15         -5.3850     2.4780    -0.5160 c6         1 M6M       0.111700
     11 C04         -0.2550    -0.6700    -1.2480 c          1 M6M       0.604100
     12 C06         -1.6010     0.1140    -1.4180 c3         1 M6M       0.055700
     13 C07         -1.5810     1.5860    -0.8990 c3         1 M6M      -0.188400
     14 C08         -2.9430     2.2690    -1.1210 c          1 M6M       0.607100
     15 C11         -3.5700     2.5070     1.2830 c6         1 M6M       0.089000
     16 C12         -4.6560     2.3230     2.3590 c6         1 M6M      -0.107400
     17 C14         -6.4260     2.3700     0.6380 c6         1 M6M      -0.103400
     18 C16         -5.9060     1.5510    -1.6570 c3         1 M6M      -0.083100
     19 N10         -3.9570     2.1670    -0.1280 n          1 M6M      -0.389800
     20 N17         -2.7520    -0.6620    -0.8920 ns         1 M6M      -0.467900
     21 O09         -3.1550     2.8220    -2.1930 o          1 M6M      -0.613100
     22 N03          0.8980     0.0730    -1.4080 ns         1 M6M      -0.496900
     23 C02          2.2770    -0.4530    -1.2980 c3         1 M6M       0.035700
     24 C26          3.2760     0.7050    -1.0040 c          1 M6M       0.599100
     25 O27          2.9580     1.8880    -1.0420 o          1 M6M      -0.608100
     26 C01          2.6650    -1.2420    -2.5720 c3         1 M6M      -0.110100
     27 C29          5.6460     1.2360    -0.3840 c3         1 M6M       0.156300
     28 C30          6.9300     0.4760    -0.0870 ca         1 M6M      -0.179300
     29 C31          7.7720     0.0870    -1.1480 ca         1 M6M      -0.051000
     30 C32          8.9590    -0.6180    -0.8820 ca         1 M6M      -0.173000
     31 C33          9.3070    -0.9340     0.4400 ca         1 M6M       0.208000
     32 C35          8.4760    -0.5530     1.5010 ca         1 M6M      -0.202000
     33 C36          7.2910     0.1500     1.2370 ca         1 M6M       0.220000
     34 F34         10.4480    -1.6120     0.6910 f          1 M6M      -0.169000
     35 F37          6.4970     0.5060     2.2710 f          1 M6M      -0.160000
     36 N28          4.5580     0.3140    -0.6900 ns         1 M6M      -0.499900
     37 H4          -4.2010    -1.7460     2.9200 ha         1 M6M       0.168000
     38 H21         -7.8590    -2.5180     2.8200 hc         1 M6M       0.063367
     39 H22         -7.1280    -4.1260     2.6550 hc         1 M6M       0.063367
     40 H23         -6.5070    -2.9900     3.8660 hc         1 M6M       0.063367
     41 H1          -6.7150     2.9090     2.7210 hc         1 M6M       0.040700
     42 H2          -5.7850     4.0980     1.7970 hc         1 M6M       0.040700
     43 H3          -5.4080     3.5130    -0.8860 h1         1 M6M       0.044700
     44 H9          -1.7390     0.1750    -2.5060 h1         1 M6M       0.094700
     45 H10         -1.3070     1.5550     0.1570 hc         1 M6M       0.079700
     46 H11         -0.8270     2.1540    -1.4550 hc         1 M6M       0.079700
     47 H12         -3.2400     3.5560     1.2990 h1         1 M6M       0.055700
     48 H13         -2.7130     1.9050     1.6030 h1         1 M6M       0.055700
     49 H14         -4.3020     2.7290     3.3170 hc         1 M6M       0.054700
     50 H15         -4.8390     1.2520     2.5220 hc         1 M6M       0.054700
     51 H16         -6.6540     1.3130     0.8360 hc         1 M6M       0.052200
     52 H17         -7.3730     2.8310     0.3240 hc         1 M6M       0.052200
     53 H18         -5.8600     0.4970    -1.3640 hc         1 M6M       0.047367
     54 H19         -6.9500     1.7800    -1.9040 hc         1 M6M       0.047367
     55 H20         -5.3360     1.6600    -2.5850 hc         1 M6M       0.047367
     56 H30         -3.4590    -0.9880    -1.5440 hn         1 M6M       0.355500
     57 H29          0.7860     1.0640    -1.5930 hn         1 M6M       0.339500
     58 H8           2.3240    -1.1320    -0.4370 h1         1 M6M       0.084700
     59 H5           1.9660    -2.0680    -2.7480 hc         1 M6M       0.050033
     60 H6           2.6510    -0.5870    -3.4520 hc         1 M6M       0.050033
     61 H7           3.6710    -1.6690    -2.4790 hc         1 M6M       0.050033
     62 H24          5.3610     1.8600     0.4740 h1         1 M6M       0.069700
     63 H25          5.8010     1.9030    -1.2440 h1         1 M6M       0.069700
     64 H26          7.5070     0.3280    -2.1760 ha         1 M6M       0.120000
     65 H27          9.6100    -0.9190    -1.6990 ha         1 M6M       0.139000
     66 H28          8.7470    -0.8020     2.5220 ha         1 M6M       0.154000
     67 H31          4.7500    -0.6800    -0.6750 hn         1 M6M       0.319500
     68 O05         -0.2050    -1.8690    -0.9980 o          1 M6M      -0.594100
@<TRIPOS>BOND
     1     1     2 2   
     2     1     6 1   
     3     1    37 1   
     4     2     3 1   
     5     2     4 1   
     6     3    38 1   
     7     3    39 1   
     8     3    40 1   
     9     4     5 1   
    10     5     6 2   
    11     6     7 1   
    12     7     8 2   
    13     7    20 1   
    14     9    16 1   
    15     9    17 1   
    16     9    41 1   
    17     9    42 1   
    18    10    17 1   
    19    10    18 1   
    20    10    19 1   
    21    10    43 1   
    22    11    12 1   
    23    11    22 1   
    24    11    68 2   
    25    12    13 1   
    26    12    20 1   
    27    12    44 1   
    28    13    14 1   
    29    13    45 1   
    30    13    46 1   
    31    14    19 1   
    32    14    21 2   
    33    15    16 1   
    34    15    19 1   
    35    15    47 1   
    36    15    48 1   
    37    16    49 1   
    38    16    50 1   
    39    17    51 1   
    40    17    52 1   
    41    18    53 1   
    42    18    54 1   
    43    18    55 1   
    44    20    56 1   
    45    22    23 1   
    46    22    57 1   
    47    23    24 1   
    48    23    26 1   
    49    23    58 1   
    50    24    25 2   
    51    24    36 1   
    52    26    59 1   
    53    26    60 1   
    54    26    61 1   
    55    27    28 1   
    56    27    36 1   
    57    27    62 1   
    58    27    63 1   
    59    28    29 ar  
    60    28    33 ar  
    61    29    30 ar  
    62    29    64 1   
    63    30    31 ar  
    64    30    65 1   
    65    31    32 ar  
    66    31    34 1   
    67    32    33 ar  
    68    32    66 1   
    69    33    35 1   
    70    36    67 1   
@<TRIPOS>SUBSTRUCTURE
     1 M6M         1 TEMP              0 ****  ****    0 ROOT
