@<TRIPOS>MOLECULE
M6N
   19    20     1     0     0
SMALL
bcc


@<TRIPOS>ATOM
      1 CAA          3.2650     1.2560    -0.0010 c3         1 M6N      -0.143400
      2 CAC         -2.8880    -0.2560    -0.0050 ca         1 M6N       0.376200
      3 CAD         -1.8170    -1.1210    -0.0130 ca         1 M6N      -0.176300
      4 CAE         -1.5410     1.5870     0.0030 ca         1 M6N       0.420200
      5 CAI          1.8940     0.6750    -0.0070 cc         1 M6N       0.506900
      6 CAJ          0.6620    -1.4240    -0.0190 c          1 M6N       0.720100
      7 CAK         -0.3730     0.8060    -0.0030 ca         1 M6N       0.065100
      8 CAL         -0.5320    -0.5820    -0.0110 ca         1 M6N      -0.173600
      9 NAF         -2.7510     1.0760     0.0020 nb         1 M6N      -0.642000
     10 NAG          0.8500     1.4270    -0.0010 nd         1 M6N      -0.617100
     11 NAH          1.8250    -0.6910    -0.0160 ns         1 M6N      -0.498400
     12 OAB          0.6650    -2.6390    -0.0280 o          1 M6N      -0.601500
     13 H1           3.2120     2.3400    -0.0200 hc         1 M6N       0.068700
     14 H2           3.8080     0.9430     0.8920 hc         1 M6N       0.068700
     15 H3           3.8330     0.9120    -0.8660 hc         1 M6N       0.068700
     16 H5          -1.9700    -2.1920    -0.0180 ha         1 M6N       0.162000
     17 H6          -1.4480     2.6680     0.0090 h4         1 M6N       0.038100
     18 H7           2.6920    -1.2150    -0.0210 hn         1 M6N       0.330500
     19 H4          -3.9020    -0.6360    -0.0050 h4         1 M6N       0.026100
@<TRIPOS>BOND
     1     1     5 1   
     2     1    13 1   
     3     1    14 1   
     4     1    15 1   
     5     2     3 ar  
     6     2     9 ar  
     7     2    19 1   
     8     3     8 ar  
     9     3    16 1   
    10     4     7 ar  
    11     4     9 ar  
    12     4    17 1   
    13     5    10 2   
    14     5    11 1   
    15     6     8 1   
    16     6    11 1   
    17     6    12 2   
    18     7     8 ar  
    19     7    10 1   
    20    11    18 1   
@<TRIPOS>SUBSTRUCTURE
     1 M6N         1 TEMP              0 ****  ****    0 ROOT
