@<TRIPOS>MOLECULE
M6N
   19    20     1     0     0
SMALL
No Charge or Current Charge


@<TRIPOS>ATOM
      1 CAA          3.3110     1.2200    -0.0030 c3         1 M6N      -0.143400
      2 CAC         -2.9410    -0.2770    -0.0080 ca         1 M6N       0.310900
      3 CAD         -1.8200    -1.1240    -0.0120 ca         1 M6N      -0.093000
      4 CAE         -1.5920     1.6080     0.0010 ca         1 M6N       0.354900
      5 CAI          1.9120     0.6840    -0.0050 cc         1 M6N       0.506900
      6 CAJ          0.6980    -1.4000    -0.0140 c          1 M6N       0.577600
      7 CAK         -0.3930     0.8430    -0.0030 ca         1 M6N       0.130400
      8 CAL         -0.5250    -0.5610    -0.0100 ca         1 M6N      -0.173600
      9 NAF         -2.8410     1.0720    -0.0020 nb         1 M6N      -0.642000
     10 NAG          0.8600     1.5020    -0.0010 nd         1 M6N      -0.617100
     11 NAH          1.8460    -0.6840    -0.0110 ns         1 M6N      -0.431400
     12 OAB          0.6930    -2.6210    -0.0200 o          1 M6N      -0.526000
     13 H1           3.3140     2.3170     0.0030 hc         1 M6N       0.068700
     14 H2           3.8580     0.8800     0.8840 hc         1 M6N       0.068700
     15 H3           3.8570     0.8880    -0.8930 hc         1 M6N       0.068700
     16 H5          -1.9640    -2.2020    -0.0170 ha         1 M6N       0.144000
     17 H6          -1.5430     2.6960     0.0060 h4         1 M6N       0.038100
     18 H7           2.7030    -1.2170    -0.0140 hn         1 M6N       0.330500
     19 H4          -3.9490    -0.6900    -0.0090 h4         1 M6N       0.026100
@<TRIPOS>BOND
     1     1     5 1   
     2     1    13 1   
     3     1    14 1   
     4     1    15 1   
     5     2     3 ar  
     6     2     9 ar  
     7     2    19 1   
     8     3     8 ar  
     9     3    16 1   
    10     4     7 ar  
    11     4     9 ar  
    12     4    17 1   
    13     5    10 2   
    14     5    11 1   
    15     6     8 1   
    16     6    11 1   
    17     6    12 2   
    18     7     8 ar  
    19     7    10 1   
    20    11    18 1   
@<TRIPOS>SUBSTRUCTURE
     1 M6N         1 TEMP              0 ****  ****    0 ROOT
