@<TRIPOS>MOLECULE
M6Q
   52    54     1     0     0
SMALL
No Charge or Current Charge


@<TRIPOS>ATOM
      1 C4          -4.1890    -8.9000    15.5740 ca         1 M6Q      -0.112000
      2 C5          -4.5070    -7.6820    14.9510 ca         1 M6Q      -0.111000
      3 C6          -3.7190    -6.5440    15.1930 ca         1 M6Q      -0.112000
      4 N1          -0.1940    -9.9590    14.8110 n          1 M6Q      -0.385800
      5 C7          -2.6100    -6.6260    16.0530 ca         1 M6Q      -0.106500
      6 C8           0.0810    -9.7970    16.1920 c          1 M6Q       0.625100
      7 N2           0.5920   -13.5320    14.1190 ns         1 M6Q      -0.501900
      8 C9          -0.2980   -11.3010    14.1670 c5         1 M6Q       0.028700
      9 C10          0.9610   -12.2170    14.3120 c          1 M6Q       0.605100
     10 C11          1.5050   -14.6720    14.2150 c3         1 M6Q       0.141300
     11 C12          1.4650   -15.3010    15.6010 ca         1 M6Q      -0.037300
     12 N3           1.3740   -16.4650    18.1860 nb         1 M6Q      -0.742000
     13 C13          2.1820   -14.7480    16.6760 ca         1 M6Q      -0.197000
     14 C14          2.1090   -15.3560    17.9420 ca         1 M6Q       0.378900
     15 C15          0.7050   -16.9730    17.1600 ca         1 M6Q       0.587900
     16 N4           0.0120   -18.0550    17.5210 nv         1 M6Q      -1.053900
     17 N            1.4290    -8.1330    17.6800 n8         1 M6Q      -0.976200
     18 C            0.2260    -8.3440    16.8010 c3         1 M6Q       0.096500
     19 O            2.1120   -11.8710    14.5510 o          1 M6Q      -0.577100
     20 C16          0.7010   -16.4510    15.8630 ca         1 M6Q      -0.231000
     21 C17         -0.4500   -10.9150    12.6630 c5         1 M6Q      -0.085400
     22 C18         -1.2340    -9.5850    12.7460 c5         1 M6Q      -0.096400
     23 C19         -0.4770    -8.8480    13.8760 c5         1 M6Q       0.108000
     24 C2          -2.2820    -7.8470    16.6750 ca         1 M6Q      -0.082300
     25 C3          -3.0820    -8.9820    16.4350 ca         1 M6Q      -0.106500
     26 H1          -4.7990    -9.7810    15.3880 ha         1 M6Q       0.113000
     27 H2          -5.3640    -7.6190    14.2840 ha         1 M6Q       0.113000
     28 H3          -3.9640    -5.6000    14.7120 ha         1 M6Q       0.113000
     29 H4          -2.0000    -5.7430    16.2270 ha         1 M6Q       0.116000
     30 H5          -0.3860   -13.7140    13.9280 hn         1 M6Q       0.312500
     31 H6          -1.1850   -11.8300    14.5410 h1         1 M6Q       0.061700
     32 H7           1.2160   -15.4170    13.4620 h1         1 M6Q       0.067200
     33 H8           2.5290   -14.3500    13.9840 h1         1 M6Q       0.067200
     34 H9           2.7880   -13.8560    16.5440 ha         1 M6Q       0.152000
     35 H10          2.6570   -14.9410    18.7880 h4         1 M6Q       0.017100
     36 H11         -0.0880   -18.1850    18.5210 hn         1 M6Q       0.465500
     37 H12         -0.7780   -18.3240    16.9450 hn         1 M6Q       0.465500
     38 H13          1.3560    -7.2250    18.1540 hn         1 M6Q       0.405500
     39 H14          1.4020    -8.8150    18.4490 hn         1 M6Q       0.405500
     40 H16          0.3360    -7.6400    15.9660 h1         1 M6Q       0.070700
     41 H17         -0.8970    -6.9790    18.0730 hc         1 M6Q       0.057700
     42 H18         -1.2370    -8.6700    18.3790 hc         1 M6Q       0.057700
     43 H19          0.1190   -16.9280    15.0800 ha         1 M6Q       0.115000
     44 H20         -0.9760   -11.6830    12.0840 hc         1 M6Q       0.061700
     45 H21          0.5250   -10.7590    12.1850 hc         1 M6Q       0.061700
     46 H22         -1.2290    -9.0260    11.8040 hc         1 M6Q       0.057700
     47 H23         -2.2820    -9.7570    13.0220 hc         1 M6Q       0.057700
     48 H24          0.4570    -8.4000    13.5120 h1         1 M6Q       0.056700
     49 H25         -1.0960    -8.0570    14.3140 h1         1 M6Q       0.056700
     50 H26         -2.8410    -9.9320    16.9080 ha         1 M6Q       0.116000
     51 C1          -1.0570    -7.9440    17.5760 c3         1 M6Q      -0.070100
     52 O1           0.2140   -10.7880    16.9080 o          1 M6Q      -0.628100
@<TRIPOS>BOND
     1     1     2 ar  
     2     1    25 ar  
     3     1    26 1   
     4     2     3 ar  
     5     2    27 1   
     6     3     5 ar  
     7     3    28 1   
     8     4     6 1   
     9     4     8 1   
    10     4    23 1   
    11     5    24 ar  
    12     5    29 1   
    13     6    18 1   
    14     6    52 2   
    15     7     9 1   
    16     7    10 1   
    17     7    30 1   
    18     8     9 1   
    19     8    21 1   
    20     8    31 1   
    21     9    19 2   
    22    10    11 1   
    23    10    32 1   
    24    10    33 1   
    25    11    13 ar  
    26    11    20 ar  
    27    12    14 ar  
    28    12    15 ar  
    29    13    14 ar  
    30    13    34 1   
    31    14    35 1   
    32    15    16 1   
    33    15    20 ar  
    34    16    36 1   
    35    16    37 1   
    36    17    18 1   
    37    17    38 1   
    38    17    39 1   
    39    18    40 1   
    40    18    51 1   
    41    20    43 1   
    42    21    22 1   
    43    21    44 1   
    44    21    45 1   
    45    22    23 1   
    46    22    46 1   
    47    22    47 1   
    48    23    48 1   
    49    23    49 1   
    50    24    25 ar  
    51    24    51 1   
    52    25    50 1   
    53    41    51 1   
    54    42    51 1   
@<TRIPOS>SUBSTRUCTURE
     1 M6Q         1 TEMP              0 ****  ****    0 ROOT
