@<TRIPOS>MOLECULE
M6Q
   52    54     1     0     0
SMALL
abcg2


@<TRIPOS>ATOM
      1 C4          -4.0680    -8.8290    15.5580 ca         1 M6Q      -0.112000
      2 C5          -4.3050    -7.6160    14.9250 ca         1 M6Q      -0.111000
      3 C6          -3.4530    -6.5450    15.1580 ca         1 M6Q      -0.112000
      4 N1          -0.1620    -9.8670    14.7270 n          1 M6Q      -0.385800
      5 C7          -2.3700    -6.6900    16.0150 ca         1 M6Q      -0.106500
      6 C8           0.0810    -9.8280    16.0430 c          1 M6Q       0.625100
      7 N2           0.1140   -13.4290    14.3400 ns         1 M6Q      -0.501900
      8 C9          -0.5330   -11.1260    14.1110 c5         1 M6Q       0.028700
      9 C10          0.5690   -12.1680    14.2460 c          1 M6Q       0.605100
     10 C11          0.9600   -14.5890    14.4320 c3         1 M6Q       0.141300
     11 C12          1.0010   -15.2030    15.8090 ca         1 M6Q      -0.037300
     12 N3           1.1540   -16.3830    18.3310 nb         1 M6Q      -0.742000
     13 C13          0.8260   -14.4380    16.9650 ca         1 M6Q      -0.197000
     14 C14          0.9130   -15.0840    18.1820 ca         1 M6Q       0.378900
     15 C15          1.3230   -17.1140    17.2310 ca         1 M6Q       0.587900
     16 N4           1.6130   -18.4370    17.3990 nv         1 M6Q      -1.053900
     17 N            1.5510    -8.6360    17.5250 n8         1 M6Q      -0.976200
     18 C            0.3570    -8.4880    16.7140 c3         1 M6Q       0.096500
     19 O            1.7490   -11.8670    14.1920 o          1 M6Q      -0.577100
     20 C16          1.2480   -16.5540    15.9450 ca         1 M6Q      -0.231000
     21 C17         -0.7640   -10.7630    12.6370 c5         1 M6Q      -0.085400
     22 C18         -1.1300    -9.2850    12.6900 c5         1 M6Q      -0.096400
     23 C19         -0.2270    -8.7490    13.7900 c5         1 M6Q       0.108000
     24 C2          -2.1170    -7.9040    16.6510 ca         1 M6Q      -0.082300
     25 C3          -2.9840    -8.9700    16.4150 ca         1 M6Q      -0.106500
     26 H1          -4.7300    -9.6690    15.3870 ha         1 M6Q       0.113000
     27 H2          -5.1500    -7.5060    14.2580 ha         1 M6Q       0.113000
     28 H3          -3.6320    -5.5930    14.6740 ha         1 M6Q       0.113000
     29 H4          -1.7080    -5.8490    16.1890 ha         1 M6Q       0.116000
     30 H5          -0.8780   -13.5740    14.4330 hn         1 M6Q       0.312500
     31 H6          -1.4610   -11.4960    14.5600 h1         1 M6Q       0.061700
     32 H7           0.6290   -15.3380    13.7090 h1         1 M6Q       0.067200
     33 H8           1.9700   -14.2990    14.1400 h1         1 M6Q       0.067200
     34 H9           0.6160   -13.3780    16.9220 ha         1 M6Q       0.152000
     35 H10          0.7760   -14.5220    19.1000 h4         1 M6Q       0.017100
     36 H11          1.3750   -18.8320    18.2950 hn         1 M6Q       0.465500
     37 H12          1.4340   -19.0520    16.6230 hn         1 M6Q       0.465500
     38 H13          1.7210    -7.7700    18.0230 hn         1 M6Q       0.405500
     39 H14          1.3920    -9.3420    18.2330 hn         1 M6Q       0.405500
     40 H16          0.5600    -7.7140    15.9730 h1         1 M6Q       0.070700
     41 H17         -0.6680    -7.1390    18.0270 hc         1 M6Q       0.057700
     42 H18         -1.0790    -8.8290    18.2850 hc         1 M6Q       0.057700
     43 H19          1.3770   -17.1830    15.0720 ha         1 M6Q       0.115000
     44 H20         -1.5340   -11.3870    12.1860 hc         1 M6Q       0.061700
     45 H21          0.1540   -10.8960    12.0610 hc         1 M6Q       0.061700
     46 H22         -0.9690    -8.7750    11.7400 hc         1 M6Q       0.057700
     47 H23         -2.1750    -9.1530    12.9750 hc         1 M6Q       0.057700
     48 H24          0.7680    -8.5060    13.4080 h1         1 M6Q       0.056700
     49 H25         -0.6430    -7.8590    14.2560 h1         1 M6Q       0.056700
     50 H26         -2.8070    -9.9220    16.9020 ha         1 M6Q       0.116000
     51 C1          -0.8990    -8.0750    17.5140 c3         1 M6Q      -0.070100
     52 O1           0.0460   -10.8470    16.7280 o          1 M6Q      -0.628100
@<TRIPOS>BOND
     1     1     2 ar  
     2     1    25 ar  
     3     1    26 1   
     4     2     3 ar  
     5     2    27 1   
     6     3     5 ar  
     7     3    28 1   
     8     4     6 1   
     9     4     8 1   
    10     4    23 1   
    11     5    24 ar  
    12     5    29 1   
    13     6    18 1   
    14     6    52 2   
    15     7     9 1   
    16     7    10 1   
    17     7    30 1   
    18     8     9 1   
    19     8    21 1   
    20     8    31 1   
    21     9    19 2   
    22    10    11 1   
    23    10    32 1   
    24    10    33 1   
    25    11    13 ar  
    26    11    20 ar  
    27    12    14 ar  
    28    12    15 ar  
    29    13    14 ar  
    30    13    34 1   
    31    14    35 1   
    32    15    16 1   
    33    15    20 ar  
    34    16    36 1   
    35    16    37 1   
    36    17    18 1   
    37    17    38 1   
    38    17    39 1   
    39    18    40 1   
    40    18    51 1   
    41    20    43 1   
    42    21    22 1   
    43    21    44 1   
    44    21    45 1   
    45    22    23 1   
    46    22    46 1   
    47    22    47 1   
    48    23    48 1   
    49    23    49 1   
    50    24    25 ar  
    51    24    51 1   
    52    25    50 1   
    53    41    51 1   
    54    42    51 1   
@<TRIPOS>SUBSTRUCTURE
     1 M6Q         1 TEMP              0 ****  ****    0 ROOT
