@<TRIPOS>MOLECULE
M6S
   66    68     1     0     0
SMALL
abcg2


@<TRIPOS>ATOM
      1 C1          -4.0230     1.8030     0.1980 c6         1 M6S      -0.089700
      2 C2          -3.4270     3.0300     0.8890 c6         1 M6S      -0.073900
      3 C3          -4.2850     4.2690     0.6550 c6         1 M6S      -0.073400
      4 C4          -4.4830     4.5320    -0.8340 c6         1 M6S      -0.075400
      5 C5          -5.0630     3.3060    -1.5330 c6         1 M6S      -0.073400
      6 C6          -4.2020     2.0680    -1.2960 c6         1 M6S      -0.073900
      7 N7          -3.7240    -0.7030    -0.1140 n7         1 M6S      -0.853400
      8 C8          -3.2420     0.5070     0.5230 c3         1 M6S       0.118500
      9 C9          -1.7710     0.6320     0.1560 c          1 M6S       0.629100
     10 O0          -1.3710     0.5120    -0.9960 o          1 M6S      -0.598100
     11 N11         -0.9220     0.9050     1.1490 nj         1 M6S      -0.406800
     12 C12          0.5200     0.9670     1.0660 cy         1 M6S       0.019700
     13 C13          1.1260    -0.3170     0.5230 c          1 M6S       0.599100
     14 O14          0.6780    -1.4060     0.8430 o          1 M6S      -0.584100
     15 N15          2.1960    -0.1390    -0.2650 ns         1 M6S      -0.497900
     16 C16          2.9700    -1.2130    -0.8420 c3         1 M6S       0.142300
     17 C17          4.4490    -1.0240    -0.6270 ca         1 M6S      -0.094300
     18 C18          4.9580    -0.7160     0.6340 ca         1 M6S      -0.109500
     19 C19          6.3190    -0.5760     0.8320 ca         1 M6S      -0.079500
     20 C20          7.2130    -0.7260    -0.2280 ca         1 M6S      -0.141900
     21 C21          6.7060    -1.0320    -1.4880 ca         1 M6S      -0.079500
     22 C22          5.3390    -1.1780    -1.6820 ca         1 M6S      -0.109500
     23 C23          8.6740    -0.5770     0.0180 ce         1 M6S       0.658800
     24 N24          9.1220    -0.8090     1.1920 n2         1 M6S      -0.826100
     25 N25          9.4200    -0.2500    -1.0790 nv         1 M6S      -1.075200
     26 C26          0.5520     1.0620     2.6140 cy         1 M6S      -0.098400
     27 C27         -0.9810     0.8970     2.6060 cy         1 M6S       0.110000
     28 C28         -5.1030    -1.0250     0.1620 c3         1 M6S       0.089800
     29 C29         -5.4910    -2.2890    -0.5850 c          1 M6S       0.597100
     30 O30         -5.0520    -2.5340    -1.7010 o          1 M6S      -0.595100
     31 C10         -6.9030    -4.2790    -0.5640 c3         1 M6S       0.096300
     32 N2          -6.3730    -3.0780     0.0380 ns         1 M6S      -0.508900
     33 H1          -5.0250     1.6610     0.6260 hc         1 M6S       0.042700
     34 H21C        -3.3290     2.8470     1.9630 hc         1 M6S       0.046950
     35 H22C        -2.4170     3.2210     0.5090 hc         1 M6S       0.046950
     36 H61C        -3.2260     2.2150    -1.7670 hc         1 M6S       0.046950
     37 H62C        -4.6600     1.2050    -1.7890 hc         1 M6S       0.046950
     38 H8          -3.3250     0.3580     1.6060 h1         1 M6S       0.059700
     39 H31C        -5.2620     4.1250     1.1290 hc         1 M6S       0.037700
     40 H32C        -3.8290     5.1360     1.1380 hc         1 M6S       0.037700
     41 H41C        -5.1330     5.3970    -0.9840 hc         1 M6S       0.040200
     42 H42C        -3.5180     4.7830    -1.2890 hc         1 M6S       0.040200
     43 H51C        -6.0770     3.1230    -1.1590 hc         1 M6S       0.037700
     44 H52C        -5.1590     3.4920    -2.6050 hc         1 M6S       0.037700
     45 H7          -3.5710    -0.6600    -1.1130 hn         1 M6S       0.461000
     46 H281        -5.2380    -1.1550     1.2390 h1         1 M6S       0.041200
     47 H282        -5.8230    -0.2480    -0.1440 h1         1 M6S       0.041200
     48 H12          0.8960     1.8510     0.5460 h1         1 M6S       0.072700
     49 H271        -1.5450     1.7240     3.0370 h1         1 M6S       0.057200
     50 H272        -1.3430    -0.0430     3.0250 h1         1 M6S       0.057200
     51 H261         1.0990     0.2690     3.1180 hc         1 M6S       0.068200
     52 H262         0.8960     2.0260     2.9780 hc         1 M6S       0.068200
     53 H15          2.4510     0.8020    -0.5210 hn         1 M6S       0.314500
     54 H161         2.6420    -2.1450    -0.3820 h1         1 M6S       0.069200
     55 H162         2.7610    -1.2980    -1.9110 h1         1 M6S       0.069200
     56 H18          4.2840    -0.5860     1.4730 ha         1 M6S       0.117500
     57 H22          4.9660    -1.4200    -2.6700 ha         1 M6S       0.117500
     58 H19          6.7000    -0.3400     1.8170 ha         1 M6S       0.127500
     59 H21          7.3700    -1.1770    -2.3310 ha         1 M6S       0.127500
     60 H24         10.1250    -0.6460     1.2420 hn         1 M6S       0.371400
     61 H251         8.9840     0.2880    -1.8090 hn         1 M6S       0.460500
     62 H252        10.3860    -0.0060    -0.9250 hn         1 M6S       0.460500
     63 H2          -6.6570    -2.8510     0.9750 hn         1 M6S       0.312500
     64 H101        -6.1350    -5.0420    -0.6960 h1         1 M6S       0.040367
     65 H102        -7.6740    -4.6790     0.0880 h1         1 M6S       0.040367
     66 H103        -7.3500    -4.0720    -1.5370 h1         1 M6S       0.040367
@<TRIPOS>BOND
     1     1     2 1   
     2     1     6 1   
     3     1     8 1   
     4     1    33 1   
     5     2     3 1   
     6     2    34 1   
     7     2    35 1   
     8     3     4 1   
     9     3    39 1   
    10     3    40 1   
    11     4     5 1   
    12     4    41 1   
    13     4    42 1   
    14     5     6 1   
    15     5    43 1   
    16     5    44 1   
    17     6    36 1   
    18     6    37 1   
    19     7     8 1   
    20     7    28 1   
    21     7    45 1   
    22     8     9 1   
    23     8    38 1   
    24     9    10 2   
    25     9    11 1   
    26    11    12 1   
    27    11    27 1   
    28    12    13 1   
    29    12    26 1   
    30    12    48 1   
    31    13    14 2   
    32    13    15 1   
    33    15    16 1   
    34    15    53 1   
    35    16    17 1   
    36    16    54 1   
    37    16    55 1   
    38    17    18 ar  
    39    17    22 ar  
    40    18    19 ar  
    41    18    56 1   
    42    19    20 ar  
    43    19    58 1   
    44    20    21 ar  
    45    20    23 1   
    46    21    22 ar  
    47    21    59 1   
    48    22    57 1   
    49    23    24 2   
    50    23    25 1   
    51    24    60 1   
    52    25    61 1   
    53    25    62 1   
    54    26    27 1   
    55    26    51 1   
    56    26    52 1   
    57    27    49 1   
    58    27    50 1   
    59    28    29 1   
    60    28    46 1   
    61    28    47 1   
    62    29    30 2   
    63    29    32 1   
    64    31    32 1   
    65    31    64 1   
    66    31    65 1   
    67    31    66 1   
    68    32    63 1   
@<TRIPOS>SUBSTRUCTURE
     1 M6S         1 TEMP              0 ****  ****    0 ROOT
