@<TRIPOS>MOLECULE
M6S
   66    68     1     0     0
SMALL
No Charge or Current Charge


@<TRIPOS>ATOM
      1 C1          -3.8290     1.9350    -0.0360 c6         1 M6S      -0.089700
      2 C2          -3.2660     3.2210     0.6400 c6         1 M6S      -0.073900
      3 C3          -3.9640     4.4950     0.1040 c6         1 M6S      -0.073400
      4 C4          -3.8410     4.5950    -1.4360 c6         1 M6S      -0.075400
      5 C5          -4.3940     3.3220    -2.1220 c6         1 M6S      -0.073400
      6 C6          -3.6980     2.0460    -1.5870 c6         1 M6S      -0.073900
      7 N7          -3.7780    -0.6310    -0.0190 n7         1 M6S      -0.853400
      8 C8          -3.2000     0.6250     0.5710 c3         1 M6S       0.118500
      9 C9          -1.6120     0.6280     0.5520 c          1 M6S       0.629100
     10 O0          -1.0680     0.4070    -0.5300 o          1 M6S      -0.598100
     11 N11         -1.0160     0.9990     1.8090 nj         1 M6S      -0.406800
     12 C12          0.4260     0.5690     1.6680 cy         1 M6S       0.019700
     13 C13          0.9600    -0.8070     1.0270 c          1 M6S       0.599100
     14 O14          0.4240    -1.8890     0.8110 o          1 M6S      -0.584100
     15 N15          2.2890    -0.6600     0.6870 ns         1 M6S      -0.497900
     16 C16          3.1110    -1.7050     0.0790 c3         1 M6S       0.142300
     17 C17          4.5340    -1.2180    -0.1440 ca         1 M6S      -0.094300
     18 C18          5.5060    -1.3790     0.8600 ca         1 M6S      -0.109500
     19 C19          6.8210    -0.9260     0.6560 ca         1 M6S      -0.079500
     20 C20          7.1900    -0.2860    -0.5500 ca         1 M6S      -0.141900
     21 C21          6.2090    -0.1480    -1.5610 ca         1 M6S      -0.079500
     22 C22          4.8950    -0.6020    -1.3550 ca         1 M6S      -0.109500
     23 C23          8.6060     0.1630    -0.7670 ce         1 M6S       0.658800
     24 N24          9.5830    -0.2440    -0.0650 n2         1 M6S      -0.826100
     25 N25          8.8370     1.1270    -1.6850 nv         1 M6S      -1.075200
     26 C26          0.1760    -0.1120     3.0840 cy         1 M6S      -0.098400
     27 C27         -1.3430    -0.1710     2.6780 cy         1 M6S       0.110000
     28 C28         -5.2530    -0.8630     0.1300 c3         1 M6S       0.089800
     29 C29         -5.7750    -2.1940    -0.5040 c          1 M6S       0.597100
     30 O30         -5.2710    -2.7060    -1.4980 o          1 M6S      -0.595100
     31 C10         -7.5080    -4.0050    -0.2910 c3         1 M6S       0.096300
     32 N2          -6.8590    -2.7620     0.1330 ns         1 M6S      -0.508900
     33 H1          -4.9000     1.8970     0.2080 hc         1 M6S       0.042700
     34 H21C        -3.3970     3.1630     1.7290 hc         1 M6S       0.046950
     35 H22C        -2.1850     3.3050     0.4600 hc         1 M6S       0.046950
     36 H61C        -2.6400     2.0640    -1.8800 hc         1 M6S       0.046950
     37 H62C        -4.1420     1.1670    -2.0750 hc         1 M6S       0.046950
     38 H8          -3.4910     0.6530     1.6290 h1         1 M6S       0.059700
     39 H31C        -5.0250     4.4860     0.3920 hc         1 M6S       0.037700
     40 H32C        -3.5220     5.3860     0.5710 hc         1 M6S       0.037700
     41 H41C        -4.3830     5.4790    -1.7970 hc         1 M6S       0.040200
     42 H42C        -2.7880     4.7380    -1.7140 hc         1 M6S       0.040200
     43 H51C        -5.4770     3.2520    -1.9530 hc         1 M6S       0.037700
     44 H52C        -4.2520     3.3950    -3.2090 hc         1 M6S       0.037700
     45 H7          -3.5280    -0.6720    -1.0190 hn         1 M6S       0.461000
     46 H281        -5.5210    -0.8730     1.1950 h1         1 M6S       0.041200
     47 H282        -5.8290    -0.0550    -0.3410 h1         1 M6S       0.041200
     48 H12          1.1470     1.3930     1.6870 h1         1 M6S       0.072700
     49 H271        -2.0380     0.0630     3.4920 h1         1 M6S       0.057200
     50 H272        -1.6430    -1.0900     2.1560 h1         1 M6S       0.057200
     51 H261         0.6480    -1.0710     3.3360 hc         1 M6S       0.068200
     52 H262         0.3690     0.5660     3.9240 hc         1 M6S       0.068200
     53 H15          2.7190     0.2390     0.8690 hn         1 M6S       0.314500
     54 H161         3.1170    -2.5850     0.7350 h1         1 M6S       0.069200
     55 H162         2.6640    -2.0010    -0.8800 h1         1 M6S       0.069200
     56 H18          5.2430    -1.8570     1.8010 ha         1 M6S       0.117500
     57 H22          4.1550    -0.4790    -2.1440 ha         1 M6S       0.117500
     58 H19          7.5530    -1.0660     1.4490 ha         1 M6S       0.127500
     59 H21          6.4580     0.3030    -2.5200 ha         1 M6S       0.127500
     60 H24         10.4490     0.0460    -0.5320 hn         1 M6S       0.371400
     61 H251         8.0110     1.6290    -1.9890 hn         1 M6S       0.460500
     62 H252         9.6570     1.7030    -1.5330 hn         1 M6S       0.460500
     63 H2          -7.2190    -2.2790     0.9480 hn         1 M6S       0.312500
     64 H101        -6.7830    -4.8280    -0.2630 h1         1 M6S       0.040367
     65 H102        -8.3410    -4.2330     0.3860 h1         1 M6S       0.040367
     66 H103        -7.8930    -3.8910    -1.3130 h1         1 M6S       0.040367
@<TRIPOS>BOND
     1     1     2 1   
     2     1     6 1   
     3     1     8 1   
     4     1    33 1   
     5     2     3 1   
     6     2    34 1   
     7     2    35 1   
     8     3     4 1   
     9     3    39 1   
    10     3    40 1   
    11     4     5 1   
    12     4    41 1   
    13     4    42 1   
    14     5     6 1   
    15     5    43 1   
    16     5    44 1   
    17     6    36 1   
    18     6    37 1   
    19     7     8 1   
    20     7    28 1   
    21     7    45 1   
    22     8     9 1   
    23     8    38 1   
    24     9    10 2   
    25     9    11 1   
    26    11    12 1   
    27    11    27 1   
    28    12    13 1   
    29    12    26 1   
    30    12    48 1   
    31    13    14 2   
    32    13    15 1   
    33    15    16 1   
    34    15    53 1   
    35    16    17 1   
    36    16    54 1   
    37    16    55 1   
    38    17    18 ar  
    39    17    22 ar  
    40    18    19 ar  
    41    18    56 1   
    42    19    20 ar  
    43    19    58 1   
    44    20    21 ar  
    45    20    23 1   
    46    21    22 ar  
    47    21    59 1   
    48    22    57 1   
    49    23    24 2   
    50    23    25 1   
    51    24    60 1   
    52    25    61 1   
    53    25    62 1   
    54    26    27 1   
    55    26    51 1   
    56    26    52 1   
    57    27    49 1   
    58    27    50 1   
    59    28    29 1   
    60    28    46 1   
    61    28    47 1   
    62    29    30 2   
    63    29    32 1   
    64    31    32 1   
    65    31    64 1   
    66    31    65 1   
    67    31    66 1   
    68    32    63 1   
@<TRIPOS>SUBSTRUCTURE
     1 M6S         1 TEMP              0 ****  ****    0 ROOT
