@<TRIPOS>MOLECULE
M6U
   36    37     1     0     0
SMALL
No Charge or Current Charge


@<TRIPOS>ATOM
      1 N1           8.0090     1.2860    21.3810 ns         1 M6U      -0.157000
      2 C4           6.0770     1.5470    17.6720 ca         1 M6U       0.322900
      3 C5           7.3810     2.5300    19.3140 ca         1 M6U       0.343900
      4 C6           7.3560     1.3620    20.1170 ca         1 M6U      -0.086000
      5 C7           8.9730     2.0890    21.9730 c          1 M6U       0.607100
      6 C8           9.3870     1.6480    23.3670 c3         1 M6U      -0.208700
      7 C10         11.9030     1.2660    23.4570 ca         1 M6U      -0.118000
      8 C13         11.4180    -1.3610    22.7420 ca         1 M6U       0.253300
      9 F2          11.4780    -3.6830    23.3250 f          1 M6U      -0.105000
     10 C14         11.1320    -2.8220    22.3410 c3         1 M6U       0.254700
     11 F            9.8260    -3.0560    22.0610 f          1 M6U      -0.105000
     12 F1          11.8330    -3.1830    21.2410 f          1 M6U      -0.105000
     13 C12         12.7470    -0.9350    22.9500 ca         1 M6U      -0.107000
     14 C11         12.9980     0.3990    23.3130 ca         1 M6U      -0.072000
     15 N2          10.3640    -0.5140    22.8890 nb         1 M6U      -0.627000
     16 C9          10.6050     0.7690    23.2370 ca         1 M6U       0.365300
     17 O            9.4930     3.0520    21.4240 o          1 M6U      -0.565100
     18 C2           6.6360     0.2390    19.6440 ca         1 M6U      -0.074300
     19 C1           6.5490    -1.0680    20.4320 c3         1 M6U      -0.034100
     20 C            5.4760    -1.0180    21.5370 c3         1 M6U      -0.088100
     21 N            6.7570     2.6260    18.1150 nb         1 M6U      -0.647000
     22 C3           5.9920     0.3480    18.3980 ca         1 M6U      -0.149000
     23 H1           7.7270     0.4930    21.9440 hn         1 M6U       0.152000
     24 H2           5.5830     1.6460    16.7060 h4         1 M6U       0.022100
     25 H3           7.8970     3.4320    19.6350 h4         1 M6U       0.043100
     26 H4           9.6210     2.5290    23.9750 hc         1 M6U       0.076200
     27 H5           8.5820     1.0690    23.8350 hc         1 M6U       0.076200
     28 H6          12.0550     2.3060    23.7330 ha         1 M6U       0.129000
     29 H7          13.5720    -1.6330    22.8290 ha         1 M6U       0.144000
     30 H8          14.0140     0.7520    23.4770 ha         1 M6U       0.130000
     31 H9           6.3150    -1.9000    19.7570 hc         1 M6U       0.046200
     32 H10          7.5190    -1.3150    20.8810 hc         1 M6U       0.046200
     33 H11          5.4340    -1.9740    22.0720 hc         1 M6U       0.039033
     34 H12          5.6970    -0.2280    22.2640 hc         1 M6U       0.039033
     35 H13          4.4870    -0.8230    21.1040 hc         1 M6U       0.039033
     36 H14          5.4260    -0.4840    17.9890 ha         1 M6U       0.121000
@<TRIPOS>BOND
     1     1     4 1   
     2     1     5 1   
     3     1    23 1   
     4     2    21 ar  
     5     2    22 ar  
     6     2    24 1   
     7     3     4 ar  
     8     3    21 ar  
     9     3    25 1   
    10     4    18 ar  
    11     5     6 1   
    12     5    17 2   
    13     6    16 1   
    14     6    26 1   
    15     6    27 1   
    16     7    14 ar  
    17     7    16 ar  
    18     7    28 1   
    19     8    10 1   
    20     8    13 ar  
    21     8    15 ar  
    22     9    10 1   
    23    10    11 1   
    24    10    12 1   
    25    13    14 ar  
    26    13    29 1   
    27    14    30 1   
    28    15    16 ar  
    29    18    19 1   
    30    18    22 ar  
    31    19    20 1   
    32    19    31 1   
    33    19    32 1   
    34    20    33 1   
    35    20    34 1   
    36    20    35 1   
    37    22    36 1   
@<TRIPOS>SUBSTRUCTURE
     1 M6U         1 TEMP              0 ****  ****    0 ROOT
