@<TRIPOS>MOLECULE
M6U
   36    37     1     0     0
SMALL
abcg2


@<TRIPOS>ATOM
      1 N1           7.7200    -0.2750    20.7860 ns         1 M6U      -0.157000
      2 C4           6.1080     1.3450    17.3480 ca         1 M6U       0.322900
      3 C5           7.9150     0.5810    18.5140 ca         1 M6U       0.343900
      4 C6           7.1350     0.2890    19.6320 ca         1 M6U      -0.086000
      5 C7           8.8660     0.1490    21.3870 c          1 M6U       0.607100
      6 C8           9.1610    -0.5690    22.7010 c3         1 M6U      -0.208700
      7 C10         10.9050     0.5900    24.1150 ca         1 M6U      -0.118000
      8 C13         12.7760    -0.9610    22.9390 ca         1 M6U       0.253300
      9 F2          15.0230    -1.6780    22.6260 f          1 M6U      -0.105000
     10 C14         13.7520    -1.8720    22.2270 c3         1 M6U       0.254700
     11 F           13.4650    -3.1750    22.4380 f          1 M6U      -0.105000
     12 F1          13.7240    -1.6830    20.8890 f          1 M6U      -0.105000
     13 C12         13.2030    -0.0390    23.8800 ca         1 M6U      -0.107000
     14 C11         12.2310     0.7550    24.4810 ca         1 M6U      -0.072000
     15 N2          11.5060    -1.1320    22.5780 nb         1 M6U      -0.627000
     16 C9          10.5770    -0.3670    23.1540 ca         1 M6U       0.365300
     17 O            9.5770     1.0380    20.9420 o          1 M6U      -0.565100
     18 C2           5.7560     0.5360    19.5900 ca         1 M6U      -0.074300
     19 C1           4.8580     0.2990    20.7730 c3         1 M6U      -0.034100
     20 C            5.0080     1.3930    21.8400 c3         1 M6U      -0.088100
     21 N            7.4230     1.1070    17.3930 nb         1 M6U      -0.647000
     22 C3           5.2550     1.0690    18.4050 ca         1 M6U      -0.149000
     23 H1           7.1670    -0.9500    21.2930 hn         1 M6U       0.152000
     24 H2           5.7210     1.7670    16.4270 h4         1 M6U       0.022100
     25 H3           8.9770     0.3750    18.5370 h4         1 M6U       0.043100
     26 H4           8.4620    -0.1820    23.4470 hc         1 M6U       0.076200
     27 H5           8.9570    -1.6340    22.5820 hc         1 M6U       0.076200
     28 H6          10.1260     1.1920    24.5620 ha         1 M6U       0.129000
     29 H7          14.2460     0.0570    24.1380 ha         1 M6U       0.144000
     30 H8          12.5090     1.4900    25.2240 ha         1 M6U       0.130000
     31 H9           3.8250     0.2700    20.4240 hc         1 M6U       0.046200
     32 H10          5.0610    -0.6770    21.2210 hc         1 M6U       0.046200
     33 H11          4.3450     1.1940    22.6830 hc         1 M6U       0.039033
     34 H12          6.0310     1.4440    22.2150 hc         1 M6U       0.039033
     35 H13          4.7510     2.3690    21.4240 hc         1 M6U       0.039033
     36 H14          4.1960     1.2770    18.3140 ha         1 M6U       0.121000
@<TRIPOS>BOND
     1     1     4 1   
     2     1     5 1   
     3     1    23 1   
     4     2    21 ar  
     5     2    22 ar  
     6     2    24 1   
     7     3     4 ar  
     8     3    21 ar  
     9     3    25 1   
    10     4    18 ar  
    11     5     6 1   
    12     5    17 2   
    13     6    16 1   
    14     6    26 1   
    15     6    27 1   
    16     7    14 ar  
    17     7    16 ar  
    18     7    28 1   
    19     8    10 1   
    20     8    13 ar  
    21     8    15 ar  
    22     9    10 1   
    23    10    11 1   
    24    10    12 1   
    25    13    14 ar  
    26    13    29 1   
    27    14    30 1   
    28    15    16 ar  
    29    18    19 1   
    30    18    22 ar  
    31    19    20 1   
    32    19    31 1   
    33    19    32 1   
    34    20    33 1   
    35    20    34 1   
    36    20    35 1   
    37    22    36 1   
@<TRIPOS>SUBSTRUCTURE
     1 M6U         1 TEMP              0 ****  ****    0 ROOT
