@<TRIPOS>MOLECULE
M6W
   21    21     1     0     0
SMALL
No Charge or Current Charge


@<TRIPOS>ATOM
      1 C01          3.4090    -0.2460     0.0490 c3         1 M6W       0.096300
      2 C03          0.9480     0.0300    -0.3580 c          1 M6W       0.605100
      3 C04         -0.3870    -0.3140     0.3480 c5         1 M6W      -0.188700
      4 C05         -1.2620    -1.1650    -0.6000 c5         1 M6W       0.146800
      5 C07         -2.6610     0.5590     0.0380 c5         1 M6W       0.135800
      6 C08         -1.2620     0.9650     0.5850 c5         1 M6W      -0.098400
      7 N02          2.0000    -0.4060     0.4130 ns         1 M6W      -0.507900
      8 N06         -2.6080    -0.9170    -0.0500 n7         1 M6W      -0.824400
      9 O09          1.0940     0.5990    -1.4310 o          1 M6W      -0.602100
     10 H1           3.6070    -0.7590    -0.9010 h1         1 M6W       0.040367
     11 H2           3.6440     0.8210    -0.0570 h1         1 M6W       0.040367
     12 H3           4.0420    -0.6790     0.8340 h1         1 M6W       0.040367
     13 H4          -0.2120    -0.8420     1.2930 hc         1 M6W       0.046700
     14 H5          -1.1960    -0.8210    -1.6440 h1         1 M6W       0.067700
     15 H6          -0.9900    -2.2300    -0.5750 h1         1 M6W       0.067700
     16 H7          -3.4790     0.9050     0.6860 h1         1 M6W       0.056700
     17 H8          -2.8220     0.9940    -0.9600 h1         1 M6W       0.056700
     18 H9          -1.3060     1.2200     1.6500 hc         1 M6W       0.057700
     19 H10         -0.8810     1.8510     0.0630 hc         1 M6W       0.057700
     20 H11          1.7710    -0.8630     1.2870 hn         1 M6W       0.312500
     21 H12         -2.6360    -1.2980     0.9030 hn         1 M6W       0.395000
@<TRIPOS>BOND
     1     1     7 1   
     2     1    10 1   
     3     1    11 1   
     4     1    12 1   
     5     2     3 1   
     6     2     7 1   
     7     2     9 2   
     8     3     4 1   
     9     3     6 1   
    10     3    13 1   
    11     4     8 1   
    12     4    14 1   
    13     4    15 1   
    14     5     6 1   
    15     5     8 1   
    16     5    16 1   
    17     5    17 1   
    18     6    18 1   
    19     6    19 1   
    20     7    20 1   
    21     8    21 1   
@<TRIPOS>SUBSTRUCTURE
     1 M6W         1 TEMP              0 ****  ****    0 ROOT
