@<TRIPOS>MOLECULE
M6W
   21    21     1     0     0
SMALL
bcc


@<TRIPOS>ATOM
      1 C01          3.3920    -0.2570     0.0040 c3         1 M6W       0.096300
      2 C03          0.9790     0.0400    -0.2300 c          1 M6W       0.672100
      3 C04         -0.3780    -0.2590     0.3660 c5         1 M6W      -0.188700
      4 C05         -1.2380    -1.1550    -0.5510 c5         1 M6W       0.146800
      5 C07         -2.6640     0.5440     0.0540 c5         1 M6W       0.135800
      6 C08         -1.2640     0.9890     0.5470 c5         1 M6W      -0.098400
      7 N02          2.0320    -0.4270     0.4550 ns         1 M6W      -0.574900
      8 N06         -2.6150    -0.8960    -0.1740 n7         1 M6W      -0.769200
      9 O09          1.1060     0.6540    -1.2840 o          1 M6W      -0.602100
     10 H1           3.5760    -0.7760    -0.9380 h1         1 M6W       0.040367
     11 H2           3.6390     0.7960    -0.1340 h1         1 M6W       0.040367
     12 H3           4.0590    -0.6680     0.7560 h1         1 M6W       0.040367
     13 H4          -0.2640    -0.7650     1.3290 hc         1 M6W       0.046700
     14 H5          -1.0880    -0.8610    -1.5940 h1         1 M6W       0.067700
     15 H6          -0.9950    -2.2140    -0.4620 h1         1 M6W       0.067700
     16 H7          -3.4590     0.7900     0.7570 h1         1 M6W       0.056700
     17 H8          -2.8980     1.0470    -0.8880 h1         1 M6W       0.056700
     18 H9          -1.2800     1.3010     1.5910 hc         1 M6W       0.057700
     19 H10         -0.8950     1.8320    -0.0370 hc         1 M6W       0.057700
     20 H11          1.8710    -0.9390     1.3050 hn         1 M6W       0.312500
     21 H12         -2.8020    -1.3710     0.7020 hn         1 M6W       0.339800
@<TRIPOS>BOND
     1     1     7 1   
     2     1    10 1   
     3     1    11 1   
     4     1    12 1   
     5     2     3 1   
     6     2     7 1   
     7     2     9 2   
     8     3     4 1   
     9     3     6 1   
    10     3    13 1   
    11     4     8 1   
    12     4    14 1   
    13     4    15 1   
    14     5     6 1   
    15     5     8 1   
    16     5    16 1   
    17     5    17 1   
    18     6    18 1   
    19     6    19 1   
    20     7    20 1   
    21     8    21 1   
@<TRIPOS>SUBSTRUCTURE
     1 M6W         1 TEMP              0 ****  ****    0 ROOT
