@<TRIPOS>MOLECULE
M6X
   47    50     1     0     0
SMALL
bcc


@<TRIPOS>ATOM
      1 N1         139.3320   100.2690   143.5080 n3         1 M6X      -0.758600
      2 C4         136.6000   100.4240   142.3890 ca         1 M6X      -0.110000
      3 C5         137.2640   101.4890   142.9860 ca         1 M6X      -0.089300
      4 C6         136.5330   102.5620   143.5160 ca         1 M6X      -0.111000
      5 C7         132.9980   102.9810   143.3340 c5         1 M6X       0.325700
      6 C8         138.7740   101.5190   143.0320 c3         1 M6X       0.227100
      7 C10        140.6590    99.9430   143.0360 c3         1 M6X       0.199800
      8 C13        141.8470   102.1230   143.7180 c          1 M6X       0.669100
      9 C15        138.8280    96.2570   145.0670 ca         1 M6X      -0.118500
     10 C17        140.5020    97.0000   146.6280 ca         1 M6X       0.048100
     11 C1         135.1640   102.5130   143.4080 ca         1 M6X       0.048100
     12 C11        139.3570    98.6240   145.3290 ca         1 M6X      -0.089300
     13 C12        141.8680   100.6120   143.7210 c3         1 M6X      -0.209400
     14 C14        138.6320    97.6000   144.7300 ca         1 M6X      -0.110000
     15 C16        139.7770    95.9890   146.0240 ca         1 M6X       0.052100
     16 C18        140.3180    98.3230   146.3040 ca         1 M6X      -0.111000
     17 C19        141.2980    95.0580   147.3400 c5         1 M6X       0.325700
     18 C2         134.5130   101.4490   142.8100 ca         1 M6X       0.052100
     19 C3         135.2060   100.3830   142.2900 ca         1 M6X      -0.118500
     20 C9         139.1180   100.0550   144.9260 c3         1 M6X       0.227100
     21 N2         142.1400   102.6580   142.5140 ns         1 M6X      -0.459400
     22 O1         134.2470   103.4060   143.8590 os         1 M6X      -0.320400
     23 O2         133.1720   101.6490   142.8710 os         1 M6X      -0.320400
     24 O3         141.6090   102.7970   144.7050 o          1 M6X      -0.570100
     25 O4         140.1520    94.7920   146.5440 os         1 M6X      -0.320400
     26 O5         141.3480    96.4630   147.5430 os         1 M6X      -0.320400
     27 O6         141.9400   103.9890   142.2930 oh         1 M6X      -0.389100
     28 H3         137.0340   103.3940   143.9950 ha         1 M6X       0.153500
     29 H4         132.7030   103.6300   142.5010 h2         1 M6X       0.063450
     30 H5         132.2410   103.0030   144.1180 h2         1 M6X       0.063450
     31 H6         139.1530   101.6880   142.0200 h1         1 M6X       0.051200
     32 H7         139.0870   102.3900   143.6250 h1         1 M6X       0.051200
     33 H8         140.8070    98.8650   143.1410 h1         1 M6X       0.053200
     34 H9         140.6910   100.1460   141.9630 h1         1 M6X       0.053200
     35 H10        138.2550    95.4700   144.5960 ha         1 M6X       0.150500
     36 H11        141.9520   100.2870   144.7580 hc         1 M6X       0.073700
     37 H12        142.7630   100.2520   143.2060 hc         1 M6X       0.073700
     38 H13        137.8960    97.8450   143.9740 ha         1 M6X       0.146000
     39 H14        140.8950    99.1060   146.7800 ha         1 M6X       0.153500
     40 H15        141.2080    94.5490   148.3000 h2         1 M6X       0.063450
     41 H16        142.2020    94.7260   146.8150 h2         1 M6X       0.063450
     42 H17        134.7000    99.5470   141.8250 ha         1 M6X       0.150500
     43 H18        139.7370   100.7180   145.5500 h1         1 M6X       0.051200
     44 H19        138.0800   100.3200   145.1450 h1         1 M6X       0.051200
     45 H20        142.1970   102.0980   141.6750 hn         1 M6X       0.332500
     46 H21        142.8030   104.4110   142.4010 ho         1 M6X       0.409000
     47 H2         137.1770    99.6000   141.9900 ha         1 M6X       0.146000
@<TRIPOS>BOND
     1     1     6 1   
     2     1     7 1   
     3     1    20 1   
     4     2     3 ar  
     5     2    19 ar  
     6     2    47 1   
     7     3     4 ar  
     8     3     6 1   
     9     4    11 ar  
    10     4    28 1   
    11     5    22 1   
    12     5    23 1   
    13     5    29 1   
    14     5    30 1   
    15     6    31 1   
    16     6    32 1   
    17     7    13 1   
    18     7    33 1   
    19     7    34 1   
    20     8    13 1   
    21     8    21 1   
    22     8    24 2   
    23     9    14 ar  
    24     9    15 ar  
    25     9    35 1   
    26    10    15 ar  
    27    10    16 ar  
    28    10    26 1   
    29    11    18 ar  
    30    11    22 1   
    31    12    14 ar  
    32    12    16 ar  
    33    12    20 1   
    34    13    36 1   
    35    13    37 1   
    36    14    38 1   
    37    15    25 1   
    38    16    39 1   
    39    17    25 1   
    40    17    26 1   
    41    17    40 1   
    42    17    41 1   
    43    18    19 ar  
    44    18    23 1   
    45    19    42 1   
    46    20    43 1   
    47    20    44 1   
    48    21    27 1   
    49    21    45 1   
    50    27    46 1   
@<TRIPOS>SUBSTRUCTURE
     1 M6X         1 TEMP              0 ****  ****    0 ROOT
