@<TRIPOS>MOLECULE
M6X
   47    50     1     0     0
SMALL
No Charge or Current Charge


@<TRIPOS>ATOM
      1 N1         139.1500   100.3420   143.4440 n3         1 M6X      -0.758600
      2 C4         136.3780   100.7360   142.0430 ca         1 M6X      -0.092000
      3 C5         137.0360   101.6070   142.9490 ca         1 M6X      -0.089300
      4 C6         136.2720   102.4420   143.7980 ca         1 M6X      -0.093000
      5 C7         132.6930   102.6400   143.9570 c5         1 M6X       0.372100
      6 C8         138.5610   101.6340   143.0090 c3         1 M6X       0.227100
      7 C10        140.6100   100.2300   143.1780 c3         1 M6X       0.199800
      8 C13        142.0140   102.3470   143.1010 c          1 M6X       0.602100
      9 C15        138.9970    96.0860   144.8800 ca         1 M6X      -0.100500
     10 C17        140.5700    97.0130   146.4610 ca         1 M6X       0.048100
     11 C1         134.8760   102.3770   143.7110 ca         1 M6X       0.048100
     12 C11        139.1770    98.5190   145.1850 ca         1 M6X      -0.089300
     13 C12        141.5220   101.1930   143.9750 c3         1 M6X      -0.209400
     14 C14        138.5860    97.3960   144.5510 ca         1 M6X      -0.092000
     15 C16        139.9960    95.9350   145.8480 ca         1 M6X       0.052100
     16 C18        140.1880    98.3250   146.1560 ca         1 M6X      -0.093000
     17 C19        141.4730    95.1820   147.3120 c5         1 M6X       0.372100
     18 C2         134.2480   101.5360   142.8360 ca         1 M6X       0.052100
     19 C3         134.9690   100.6950   141.9800 ca         1 M6X      -0.100500
     20 C9         138.7270    99.9270   144.8110 c3         1 M6X       0.227100
     21 N2         143.3380   102.2470   142.6910 ns         1 M6X      -0.392400
     22 O1         134.0000   103.1050   144.4500 os         1 M6X      -0.343600
     23 O2         132.8960   101.6250   142.9090 os         1 M6X      -0.343600
     24 O3         141.3140   103.3120   142.8250 o          1 M6X      -0.570100
     25 O4         140.5160    94.7570   146.2770 os         1 M6X      -0.343600
     26 O5         141.5250    96.6530   147.3560 os         1 M6X      -0.343600
     27 O6         143.8730   103.1280   141.6730 oh         1 M6X      -0.428100
     28 H3         136.7490   103.1170   144.5050 ha         1 M6X       0.135500
     29 H4         132.1400   103.4890   143.5390 h2         1 M6X       0.063450
     30 H5         132.1300   102.1960   144.7870 h2         1 M6X       0.063450
     31 H6         138.9280   101.8930   142.0060 h1         1 M6X       0.051200
     32 H7         138.8790   102.4410   143.6830 h1         1 M6X       0.051200
     33 H8         140.9370    99.2040   143.3960 h1         1 M6X       0.053200
     34 H9         140.8010   100.3680   142.1040 h1         1 M6X       0.053200
     35 H10        138.5530    95.2190   144.3970 ha         1 M6X       0.132500
     36 H11        140.9860   101.6020   144.8370 hc         1 M6X       0.073700
     37 H12        142.3820   100.6120   144.3250 hc         1 M6X       0.073700
     38 H13        137.8140    97.5450   143.7980 ha         1 M6X       0.128000
     39 H14        140.6620    99.1670   146.6520 ha         1 M6X       0.135500
     40 H15        141.1390    94.8060   148.2860 h2         1 M6X       0.063450
     41 H16        142.4680    94.7860   147.0770 h2         1 M6X       0.063450
     42 H17        134.4560   100.0300   141.2900 ha         1 M6X       0.132500
     43 H18        139.0990   100.6360   145.5620 h1         1 M6X       0.051200
     44 H19        137.6310    99.9480   144.8870 h1         1 M6X       0.051200
     45 H20        143.8410   101.3720   142.8370 hn         1 M6X       0.332500
     46 H21        144.7110   103.4640   142.0720 ho         1 M6X       0.448000
     47 H2         136.9650   100.0890   141.3940 ha         1 M6X       0.128000
@<TRIPOS>BOND
     1     1     6 1   
     2     1     7 1   
     3     1    20 1   
     4     2     3 ar  
     5     2    19 ar  
     6     2    47 1   
     7     3     4 ar  
     8     3     6 1   
     9     4    11 ar  
    10     4    28 1   
    11     5    22 1   
    12     5    23 1   
    13     5    29 1   
    14     5    30 1   
    15     6    31 1   
    16     6    32 1   
    17     7    13 1   
    18     7    33 1   
    19     7    34 1   
    20     8    13 1   
    21     8    21 1   
    22     8    24 2   
    23     9    14 ar  
    24     9    15 ar  
    25     9    35 1   
    26    10    15 ar  
    27    10    16 ar  
    28    10    26 1   
    29    11    18 ar  
    30    11    22 1   
    31    12    14 ar  
    32    12    16 ar  
    33    12    20 1   
    34    13    36 1   
    35    13    37 1   
    36    14    38 1   
    37    15    25 1   
    38    16    39 1   
    39    17    25 1   
    40    17    26 1   
    41    17    40 1   
    42    17    41 1   
    43    18    19 ar  
    44    18    23 1   
    45    19    42 1   
    46    20    43 1   
    47    20    44 1   
    48    21    27 1   
    49    21    45 1   
    50    27    46 1   
@<TRIPOS>SUBSTRUCTURE
     1 M6X         1 TEMP              0 ****  ****    0 ROOT
