@<TRIPOS>MOLECULE
M6Y
   72    75     1     0     0
SMALL
No Charge or Current Charge


@<TRIPOS>ATOM
      1 C25          4.1950     2.8040     1.7970 cc         1 M6Y      -0.202000
      2 C26          5.1620     3.7050     1.5020 cd         1 M6Y       0.167300
      3 C27          6.0770     4.4890     2.3970 c3         1 M6Y      -0.134400
      4 O28          5.2540     3.8540     0.1440 os         1 M6Y      -0.063700
      5 N29          4.2790     2.9900    -0.4760 nd         1 M6Y      -0.351300
      6 C24          3.6800     2.3900     0.5520 cc         1 M6Y       0.225500
      7 C22          2.5720     1.3850     0.4510 c          1 M6Y       0.541600
      8 O23          2.0260     0.8610     1.4150 o          1 M6Y      -0.592100
      9 C13          4.8780    -3.4650     1.5790 c5         1 M6Y      -0.089400
     10 C15          5.6040    -1.8690    -0.2040 ca         1 M6Y      -0.080300
     11 C17          6.5680     0.3450     0.2090 ca         1 M6Y      -0.113000
     12 C20          6.5300    -2.0490    -1.2520 ca         1 M6Y      -0.092000
     13 C04         -0.2990     0.9000    -1.0270 c          1 M6Y       0.586100
     14 C06          1.0860     0.2140    -1.2740 c3         1 M6Y       0.057700
     15 C07          1.1860    -1.2290    -0.6980 c3         1 M6Y      -0.168400
     16 C08          2.5750    -1.8600    -0.8920 c          1 M6Y       0.610100
     17 C11          2.5610    -2.8230     1.4720 c5         1 M6Y       0.103000
     18 C12          3.4750    -3.9630     1.9960 c5         1 M6Y      -0.096400
     19 C14          4.6080    -2.9910     0.1210 c5         1 M6Y       0.159000
     20 C16          5.6280    -0.6540     0.5190 ca         1 M6Y      -0.092000
     21 C18          7.4830     0.1510    -0.8360 ca         1 M6Y      -0.105000
     22 C19          7.4620    -1.0460    -1.5690 ca         1 M6Y      -0.113000
     23 N10          3.2400    -2.4320     0.2150 n          1 M6Y      -0.409800
     24 N21          2.2030     1.0970    -0.8540 ns         1 M6Y      -0.469900
     25 O09          3.0800    -1.8930    -2.0070 o          1 M6Y      -0.609100
     26 N03         -1.4060     0.1140    -1.2840 ns         1 M6Y      -0.502900
     27 C02         -2.8140     0.5420    -1.1240 c3         1 M6Y       0.033700
     28 C30         -3.7450    -0.6990    -0.9820 c          1 M6Y       0.598100
     29 O31         -3.3590    -1.8480    -1.1590 o          1 M6Y      -0.605100
     30 C01         -3.2450     1.4580    -2.2950 c3         1 M6Y      -0.110100
     31 C33         -6.0820    -1.4350    -0.4530 c3         1 M6Y       0.155300
     32 C34         -7.4080    -0.7910    -0.0800 ca         1 M6Y      -0.178300
     33 C35         -8.2680    -0.3250    -1.0950 ca         1 M6Y      -0.050000
     34 C36         -9.4950     0.2740    -0.7590 ca         1 M6Y      -0.173000
     35 C37         -9.8650     0.4080     0.5870 ca         1 M6Y       0.208000
     36 C39         -9.0170    -0.0510     1.6040 ca         1 M6Y      -0.202000
     37 C40         -7.7930    -0.6480     1.2700 ca         1 M6Y       0.219000
     38 F38        -11.0440     0.9830     0.9060 f          1 M6Y      -0.169000
     39 F41         -6.9830    -1.0810     2.2620 f          1 M6Y      -0.162000
     40 N32         -5.0480    -0.4220    -0.6350 ns         1 M6Y      -0.499900
     41 H20          3.8750     2.4610     2.7740 ha         1 M6Y       0.167000
     42 H21          7.1240     4.2150     2.2210 hc         1 M6Y       0.063367
     43 H22          5.9730     5.5650     2.2150 hc         1 M6Y       0.063367
     44 H23          5.8520     4.3020     3.4530 hc         1 M6Y       0.063367
     45 H1           5.2090    -2.6580     2.2410 hc         1 M6Y       0.057700
     46 H2           5.6390    -4.2530     1.6240 hc         1 M6Y       0.057700
     47 H3           6.5880     1.2690     0.7800 ha         1 M6Y       0.108500
     48 H4           6.5270    -2.9740    -1.8250 ha         1 M6Y       0.113500
     49 H9           1.1590     0.1210    -2.3650 h1         1 M6Y       0.086700
     50 H10          0.8900    -1.2240     0.3540 hc         1 M6Y       0.080700
     51 H11          0.4750    -1.8760    -1.2230 hc         1 M6Y       0.080700
     52 H12          1.5360    -3.1810     1.3080 h1         1 M6Y       0.055700
     53 H13          2.5300    -1.9770     2.1720 h1         1 M6Y       0.055700
     54 H14          3.2330    -4.9150     1.5090 hc         1 M6Y       0.054700
     55 H15          3.3790    -4.1130     3.0770 hc         1 M6Y       0.054700
     56 H16          4.6500    -3.8190    -0.6010 h1         1 M6Y       0.062700
     57 H17          4.9220    -0.4850     1.3290 ha         1 M6Y       0.113500
     58 H18          8.2080     0.9260    -1.0780 ha         1 M6Y       0.110000
     59 H19          8.1700    -1.1990    -2.3800 ha         1 M6Y       0.108500
     60 H30          2.7180     1.5970    -1.5730 hn         1 M6Y       0.347500
     61 H29         -1.2360    -0.8370    -1.5950 hn         1 M6Y       0.338500
     62 H8          -2.9010     1.1070    -0.1860 h1         1 M6Y       0.085700
     63 H5          -3.1910     0.9180    -3.2480 hc         1 M6Y       0.050367
     64 H6          -4.2730     1.8120    -2.1600 hc         1 M6Y       0.050367
     65 H7          -2.5940     2.3380    -2.3630 hc         1 M6Y       0.050367
     66 H24         -5.7640    -2.1410     0.3260 h1         1 M6Y       0.070200
     67 H25         -6.1950    -2.0010    -1.3880 h1         1 M6Y       0.070200
     68 H26         -7.9860    -0.4240    -2.1420 ha         1 M6Y       0.121000
     69 H27        -10.1600     0.6340    -1.5400 ha         1 M6Y       0.140000
     70 H28         -9.3060     0.0560     2.6450 ha         1 M6Y       0.153000
     71 H31         -5.2980     0.5510    -0.5010 hn         1 M6Y       0.318500
     72 O05         -0.4190     2.0530    -0.6300 o          1 M6Y      -0.584100
@<TRIPOS>BOND
     1     1     2 2   
     2     1     6 1   
     3     1    41 1   
     4     2     3 1   
     5     2     4 1   
     6     3    42 1   
     7     3    43 1   
     8     3    44 1   
     9     4     5 1   
    10     5     6 2   
    11     6     7 1   
    12     7     8 2   
    13     7    24 1   
    14     9    18 1   
    15     9    19 1   
    16     9    45 1   
    17     9    46 1   
    18    10    12 ar  
    19    10    19 1   
    20    10    20 ar  
    21    11    20 ar  
    22    11    21 ar  
    23    11    47 1   
    24    12    22 ar  
    25    12    48 1   
    26    13    14 1   
    27    13    26 1   
    28    13    72 2   
    29    14    15 1   
    30    14    24 1   
    31    14    49 1   
    32    15    16 1   
    33    15    50 1   
    34    15    51 1   
    35    16    23 1   
    36    16    25 2   
    37    17    18 1   
    38    17    23 1   
    39    17    52 1   
    40    17    53 1   
    41    18    54 1   
    42    18    55 1   
    43    19    23 1   
    44    19    56 1   
    45    20    57 1   
    46    21    22 ar  
    47    21    58 1   
    48    22    59 1   
    49    24    60 1   
    50    26    27 1   
    51    26    61 1   
    52    27    28 1   
    53    27    30 1   
    54    27    62 1   
    55    28    29 2   
    56    28    40 1   
    57    30    63 1   
    58    30    64 1   
    59    30    65 1   
    60    31    32 1   
    61    31    40 1   
    62    31    66 1   
    63    31    67 1   
    64    32    33 ar  
    65    32    37 ar  
    66    33    34 ar  
    67    33    68 1   
    68    34    35 ar  
    69    34    69 1   
    70    35    36 ar  
    71    35    38 1   
    72    36    37 ar  
    73    36    70 1   
    74    37    39 1   
    75    40    71 1   
@<TRIPOS>SUBSTRUCTURE
     1 M6Y         1 TEMP              0 ****  ****    0 ROOT
