@<TRIPOS>MOLECULE
M6Y
   72    75     1     0     0
SMALL
abcg2


@<TRIPOS>ATOM
      1 C25          3.8440     2.9300     1.6550 cc         1 M6Y      -0.202000
      2 C26          4.8780     3.7370     1.3130 cd         1 M6Y       0.167300
      3 C27          5.8310     4.5520     2.0960 c3         1 M6Y      -0.134400
      4 O28          4.9960     3.7450    -0.0230 os         1 M6Y      -0.063700
      5 N29          4.0540     2.9520    -0.5790 nd         1 M6Y      -0.351300
      6 C24          3.3650     2.4620     0.4110 cc         1 M6Y       0.225500
      7 C22          2.2200     1.5330     0.1990 c          1 M6Y       0.541600
      8 O23          1.5210     1.2150     1.1460 o          1 M6Y      -0.592100
      9 C13          3.9850    -3.3230     2.0890 c5         1 M6Y      -0.089400
     10 C15          5.0920    -1.9390     0.2800 ca         1 M6Y      -0.080300
     11 C17          6.2280     0.1760     0.5270 ca         1 M6Y      -0.113000
     12 C20          6.1370    -2.3830    -0.5210 ca         1 M6Y      -0.092000
     13 C04         -0.3310     1.0330    -1.5220 c          1 M6Y       0.586100
     14 C06          0.9930     0.2550    -1.5090 c3         1 M6Y       0.057700
     15 C07          0.8800    -1.0580    -0.7220 c3         1 M6Y      -0.168400
     16 C08          2.2290    -1.7480    -0.6750 c          1 M6Y       0.610100
     17 C11          1.8260    -2.4080     1.7090 c5         1 M6Y       0.103000
     18 C12          2.5200    -3.5590     2.4250 c5         1 M6Y      -0.096400
     19 C14          3.9550    -2.8660     0.6250 c5         1 M6Y       0.159000
     20 C16          5.1490    -0.6490     0.8030 ca         1 M6Y      -0.092000
     21 C18          7.2710    -0.2760    -0.2730 ca         1 M6Y      -0.105000
     22 C19          7.2230    -1.5610    -0.7950 ca         1 M6Y      -0.113000
     23 N10          2.6390    -2.2360     0.5060 n          1 M6Y      -0.409800
     24 N21          2.0720     1.0930    -1.0570 ns         1 M6Y      -0.469900
     25 O09          2.9140    -1.8420    -1.6860 o          1 M6Y      -0.609100
     26 N03         -1.3720     0.3340    -1.9970 ns         1 M6Y      -0.502900
     27 C02         -2.7000     0.8810    -2.1330 c3         1 M6Y       0.033700
     28 C30         -3.6900    -0.2790    -2.0710 c          1 M6Y       0.598100
     29 O31         -3.3560    -1.4140    -2.3740 o          1 M6Y      -0.605100
     30 C01         -2.8760     1.6500    -3.4450 c3         1 M6Y      -0.110100
     31 C33         -6.0460    -0.8460    -1.6240 c3         1 M6Y       0.155300
     32 C34         -6.6500    -0.8550    -0.2460 ca         1 M6Y      -0.178300
     33 C35         -7.9370    -0.3860    -0.0120 ca         1 M6Y      -0.050000
     34 C36         -8.4970    -0.3770     1.2590 ca         1 M6Y      -0.173000
     35 C37         -7.7350    -0.8450     2.3090 ca         1 M6Y       0.208000
     36 C39         -6.4480    -1.3210     2.1360 ca         1 M6Y      -0.202000
     37 C40         -5.9380    -1.3140     0.8540 ca         1 M6Y       0.219000
     38 F38         -8.2480    -0.8410     3.5460 f          1 M6Y      -0.169000
     39 F41         -4.6950    -1.7760     0.6670 f          1 M6Y      -0.162000
     40 N32         -4.9320     0.0720    -1.7140 ns         1 M6Y      -0.499900
     41 H20          3.4810     2.6990     2.6420 ha         1 M6Y       0.167000
     42 H21          6.8630     4.2830     1.8690 hc         1 M6Y       0.063367
     43 H22          5.7090     5.6150     1.8840 hc         1 M6Y       0.063367
     44 H23          5.6620     4.3940     3.1580 hc         1 M6Y       0.063367
     45 H1           4.3880    -2.5280     2.7210 hc         1 M6Y       0.057700
     46 H2           4.6170    -4.2010     2.2190 hc         1 M6Y       0.057700
     47 H3           6.2600     1.1740     0.9440 ha         1 M6Y       0.108500
     48 H4           6.1000    -3.3830    -0.9390 ha         1 M6Y       0.113500
     49 H9           1.2290     0.0060    -2.5450 h1         1 M6Y       0.086700
     50 H10          0.4630    -0.8740     0.2630 hc         1 M6Y       0.080700
     51 H11          0.1930    -1.7340    -1.2390 hc         1 M6Y       0.080700
     52 H12          0.7920    -2.6420     1.4640 h1         1 M6Y       0.055700
     53 H13          1.8360    -1.4980     2.3170 h1         1 M6Y       0.055700
     54 H14          2.1800    -4.5120     2.0150 hc         1 M6Y       0.054700
     55 H15          2.3190    -3.5600     3.4950 hc         1 M6Y       0.054700
     56 H16          3.9990    -3.7390    -0.0350 h1         1 M6Y       0.062700
     57 H17          4.3460    -0.2830     1.4320 ha         1 M6Y       0.113500
     58 H18          8.1110     0.3710    -0.4880 ha         1 M6Y       0.110000
     59 H19          8.0280    -1.9230    -1.4220 ha         1 M6Y       0.108500
     60 H30          2.7090     1.4390    -1.7580 hn         1 M6Y       0.347500
     61 H29         -1.2350    -0.5970    -2.3610 hn         1 M6Y       0.338500
     62 H8          -2.8790     1.5600    -1.2970 h1         1 M6Y       0.085700
     63 H5          -2.7420     0.9900    -4.3030 hc         1 M6Y       0.050367
     64 H6          -3.8670     2.0990    -3.5090 hc         1 M6Y       0.050367
     65 H7          -2.1420     2.4510    -3.5080 hc         1 M6Y       0.050367
     66 H24         -5.6950    -1.8360    -1.9060 h1         1 M6Y       0.070200
     67 H25         -6.8150    -0.5640    -2.3460 h1         1 M6Y       0.070200
     68 H26         -8.5210    -0.0180    -0.8460 ha         1 M6Y       0.121000
     69 H27         -9.5010    -0.0090     1.4250 ha         1 M6Y       0.140000
     70 H28         -5.8630    -1.6860     2.9700 ha         1 M6Y       0.153000
     71 H31         -5.1120     1.0350    -1.4740 hn         1 M6Y       0.318500
     72 O05         -0.4110     2.1890    -1.1470 o          1 M6Y      -0.584100
@<TRIPOS>BOND
     1     1     2 2   
     2     1     6 1   
     3     1    41 1   
     4     2     3 1   
     5     2     4 1   
     6     3    42 1   
     7     3    43 1   
     8     3    44 1   
     9     4     5 1   
    10     5     6 2   
    11     6     7 1   
    12     7     8 2   
    13     7    24 1   
    14     9    18 1   
    15     9    19 1   
    16     9    45 1   
    17     9    46 1   
    18    10    12 ar  
    19    10    19 1   
    20    10    20 ar  
    21    11    20 ar  
    22    11    21 ar  
    23    11    47 1   
    24    12    22 ar  
    25    12    48 1   
    26    13    14 1   
    27    13    26 1   
    28    13    72 2   
    29    14    15 1   
    30    14    24 1   
    31    14    49 1   
    32    15    16 1   
    33    15    50 1   
    34    15    51 1   
    35    16    23 1   
    36    16    25 2   
    37    17    18 1   
    38    17    23 1   
    39    17    52 1   
    40    17    53 1   
    41    18    54 1   
    42    18    55 1   
    43    19    23 1   
    44    19    56 1   
    45    20    57 1   
    46    21    22 ar  
    47    21    58 1   
    48    22    59 1   
    49    24    60 1   
    50    26    27 1   
    51    26    61 1   
    52    27    28 1   
    53    27    30 1   
    54    27    62 1   
    55    28    29 2   
    56    28    40 1   
    57    30    63 1   
    58    30    64 1   
    59    30    65 1   
    60    31    32 1   
    61    31    40 1   
    62    31    66 1   
    63    31    67 1   
    64    32    33 ar  
    65    32    37 ar  
    66    33    34 ar  
    67    33    68 1   
    68    34    35 ar  
    69    34    69 1   
    70    35    36 ar  
    71    35    38 1   
    72    36    37 ar  
    73    36    70 1   
    74    37    39 1   
    75    40    71 1   
@<TRIPOS>SUBSTRUCTURE
     1 M6Y         1 TEMP              0 ****  ****    0 ROOT
