@<TRIPOS>MOLECULE
M6Z
   22    23     1     0     0
SMALL
abcg2


@<TRIPOS>ATOM
      1 N12          2.5330     2.4080     0.0290 na         1 M6Z      -0.041400
      2 C01          5.4250    -2.2780     0.0450 c3         1 M6Z       0.096300
      3 C03          3.3260    -1.0430     0.0190 c          1 M6Z       0.549800
      4 C04          2.6880     0.2910     0.0220 cc         1 M6Z       0.303900
      5 C05          1.2950     0.5840     0.0150 ca         1 M6Z      -0.192900
      6 C06          0.1060    -0.1590     0.0070 ca         1 M6Z       0.016000
      7 C07         -1.0740     0.5450     0.0040 ca         1 M6Z       0.155000
      8 C08         -1.1190     1.9550     0.0070 ca         1 M6Z      -0.046000
      9 C09          0.0400     2.6950     0.0150 ca         1 M6Z      -0.133000
     10 C11          1.2440     1.9880     0.0200 ca         1 M6Z      -0.043200
     11 I10         -2.8970    -0.5070    -0.0050 i          1 M6Z      -0.308000
     12 N02          4.6620    -1.0530     0.0450 ns         1 M6Z      -0.492900
     13 N13          3.3890     1.4030     0.0310 nd         1 M6Z      -0.514100
     14 O14          2.6400    -2.0590    -0.0080 o          1 M6Z      -0.602100
     15 H1           2.8740     3.3560     0.0350 hn         1 M6Z       0.382000
     16 H2           6.4800    -2.0230     0.0350 h1         1 M6Z       0.041700
     17 H3           5.2260    -2.8800     0.9330 h1         1 M6Z       0.041700
     18 H4           5.2110    -2.8860    -0.8340 h1         1 M6Z       0.041700
     19 H5           0.1320    -1.2390     0.0040 ha         1 M6Z       0.158000
     20 H6          -2.0700     2.4690     0.0030 ha         1 M6Z       0.128000
     21 H7           0.0100     3.7760     0.0180 ha         1 M6Z       0.124000
     22 H8           5.1550    -0.1750     0.0810 hn         1 M6Z       0.332500
@<TRIPOS>BOND
     1     1    10 1   
     2     1    13 1   
     3     1    15 1   
     4     2    12 1   
     5     2    16 1   
     6     2    17 1   
     7     2    18 1   
     8     3     4 1   
     9     3    12 1   
    10     3    14 2   
    11     4     5 1   
    12     4    13 2   
    13     5     6 ar  
    14     5    10 ar  
    15     6     7 ar  
    16     6    19 1   
    17     7     8 ar  
    18     7    11 1   
    19     8     9 ar  
    20     8    20 1   
    21     9    10 ar  
    22     9    21 1   
    23    12    22 1   
@<TRIPOS>SUBSTRUCTURE
     1 M6Z         1 TEMP              0 ****  ****    0 ROOT
