@<TRIPOS>MOLECULE
M6Z
   22    23     1     0     0
SMALL
No Charge or Current Charge


@<TRIPOS>ATOM
      1 N12          2.5350     2.5030     0.0320 na         1 M6Z      -0.041400
      2 C01          5.4520    -2.3470     0.0420 c3         1 M6Z       0.096300
      3 C03          3.2810    -1.0610     0.0290 c          1 M6Z       0.549800
      4 C04          2.7280     0.3430     0.0290 cc         1 M6Z       0.303900
      5 C05          1.3120     0.6660     0.0190 ca         1 M6Z      -0.192900
      6 C06          0.1520    -0.1290     0.0090 ca         1 M6Z       0.016000
      7 C07         -1.0950     0.5330     0.0020 ca         1 M6Z       0.155000
      8 C08         -1.1600     1.9480     0.0050 ca         1 M6Z      -0.046000
      9 C09          0.0250     2.7160     0.0150 ca         1 M6Z      -0.133000
     10 C11          1.2430     2.0260     0.0220 ca         1 M6Z      -0.043200
     11 I10         -2.9270    -0.6240    -0.0140 i          1 M6Z      -0.308000
     12 N02          4.6640    -1.1130     0.0390 ns         1 M6Z      -0.492900
     13 N13          3.4800     1.4690     0.0370 nd         1 M6Z      -0.514100
     14 O14          2.6110    -2.0890     0.0220 o          1 M6Z      -0.602100
     15 H1           2.8140     3.4830     0.0370 hn         1 M6Z       0.382000
     16 H2           6.5220    -2.0990     0.0500 h1         1 M6Z       0.041700
     17 H3           5.2110    -2.9380     0.9350 h1         1 M6Z       0.041700
     18 H4           5.2240    -2.9340    -0.8570 h1         1 M6Z       0.041700
     19 H5           0.1960    -1.2140     0.0070 ha         1 M6Z       0.158000
     20 H6          -2.1280     2.4420    -0.0010 ha         1 M6Z       0.128000
     21 H7          -0.0100     3.8040     0.0170 ha         1 M6Z       0.124000
     22 H8           5.1450    -0.2180     0.0450 hn         1 M6Z       0.332500
@<TRIPOS>BOND
     1     1    10 1   
     2     1    13 1   
     3     1    15 1   
     4     2    12 1   
     5     2    16 1   
     6     2    17 1   
     7     2    18 1   
     8     3     4 1   
     9     3    12 1   
    10     3    14 2   
    11     4     5 1   
    12     4    13 2   
    13     5     6 ar  
    14     5    10 ar  
    15     6     7 ar  
    16     6    19 1   
    17     7     8 ar  
    18     7    11 1   
    19     8     9 ar  
    20     8    20 1   
    21     9    10 ar  
    22     9    21 1   
    23    12    22 1   
@<TRIPOS>SUBSTRUCTURE
     1 M6Z         1 TEMP              0 ****  ****    0 ROOT
