@<TRIPOS>MOLECULE
M72
   25    25     1     0     0
SMALL
No Charge or Current Charge


@<TRIPOS>ATOM
      1 O3           3.3270    -1.0520    -0.5790 o          1 M72      -0.714500
      2 C            2.8230    -0.4090     0.3340 c          1 M72       0.698000
      3 O            3.4840     0.2300     1.1430 o          1 M72      -0.714500
      4 CA           1.2980    -0.6400     0.6210 c3         1 M72       0.027300
      5 OA           0.9420    -2.0600     0.5830 oh         1 M72      -0.757000
      6 CB           0.4410     0.1750    -0.3930 c3         1 M72       0.190600
      7 CG          -1.0700     0.0220    -0.1690 ca         1 M72      -0.076300
      8 CD2         -1.8880    -0.4920    -1.1960 ca         1 M72      -0.092500
      9 CE2         -3.2750    -0.6220    -1.0040 ca         1 M72      -0.126000
     10 CZ          -3.8560    -0.2370     0.2150 ca         1 M72      -0.132000
     11 CE1         -3.0500     0.2800     1.2420 ca         1 M72      -0.126000
     12 CD1         -1.6630     0.4110     1.0510 ca         1 M72      -0.092500
     13 O1           0.7980     1.5660    -0.2560 os         1 M72      -0.413000
     14 C1           0.2680     2.4430    -1.2660 c3         1 M72       0.149900
     15 H2           1.0990    -0.2420     1.6250 h1         1 M72       0.053700
     16 H3           1.5660    -2.4780    -0.0620 ho         1 M72       0.531000
     17 H4           0.6920    -0.1730    -1.4040 h1         1 M72       0.040700
     18 H5          -1.4490    -0.7920    -2.1450 ha         1 M72       0.117500
     19 H6          -3.8980    -1.0210    -1.8010 ha         1 M72       0.094000
     20 H7          -4.9290    -0.3370     0.3630 ha         1 M72       0.091000
     21 H8          -3.4990     0.5820     2.1860 ha         1 M72       0.094000
     22 H9          -1.0490     0.8200     1.8500 ha         1 M72       0.117500
     23 H10         -0.8290     2.4670    -1.2320 h1         1 M72       0.014033
     24 H11          0.6340     3.4650    -1.1100 h1         1 M72       0.014033
     25 H12          0.5800     2.1160    -2.2660 h1         1 M72       0.014033
@<TRIPOS>BOND
     1     1     2 1   
     2     2     3 1   
     3     2     4 1   
     4     4     5 1   
     5     4     6 1   
     6     4    15 1   
     7     5    16 1   
     8     6     7 1   
     9     6    13 1   
    10     6    17 1   
    11     7     8 ar  
    12     7    12 ar  
    13     8     9 ar  
    14     8    18 1   
    15     9    10 ar  
    16     9    19 1   
    17    10    11 ar  
    18    10    20 1   
    19    11    12 ar  
    20    11    21 1   
    21    12    22 1   
    22    13    14 1   
    23    14    23 1   
    24    14    24 1   
    25    14    25 1   
@<TRIPOS>SUBSTRUCTURE
     1 M72         1 TEMP              0 ****  ****    0 ROOT
