@<TRIPOS>MOLECULE
M72
   25    25     1     0     0
SMALL
abcg2


@<TRIPOS>ATOM
      1 O3           3.1640    -1.4340    -0.5470 o          1 M72      -0.714500
      2 C            2.7280    -0.5640     0.2430 c          1 M72       0.698000
      3 O            3.3650     0.3430     0.7940 o          1 M72      -0.714500
      4 CA           1.2100    -0.6840     0.5220 c3         1 M72       0.027300
      5 OA           0.7990    -2.0000     0.2620 oh         1 M72      -0.757000
      6 CB           0.4130     0.2790    -0.3800 c3         1 M72       0.190600
      7 CG          -1.0730     0.0790    -0.1830 ca         1 M72      -0.076300
      8 CD2         -1.8080    -0.7030    -1.0660 ca         1 M72      -0.092500
      9 CE2         -3.1670    -0.9120    -0.8700 ca         1 M72      -0.126000
     10 CZ          -3.8090    -0.3350     0.2180 ca         1 M72      -0.132000
     11 CE1         -3.0830     0.4510     1.1040 ca         1 M72      -0.126000
     12 CD1         -1.7250     0.6540     0.9060 ca         1 M72      -0.092500
     13 O1           0.8130     1.5910    -0.0900 os         1 M72      -0.413000
     14 C1           0.3680     2.5390    -1.0280 c3         1 M72       0.149900
     15 H2           1.0040    -0.4310     1.5700 h1         1 M72       0.053700
     16 H3           1.5250    -2.3340    -0.2960 ho         1 M72       0.531000
     17 H4           0.6590     0.0280    -1.4260 h1         1 M72       0.040700
     18 H5          -1.3150    -1.1470    -1.9230 ha         1 M72       0.117500
     19 H6          -3.7260    -1.5220    -1.5690 ha         1 M72       0.094000
     20 H7          -4.8690    -0.4930     0.3730 ha         1 M72       0.091000
     21 H8          -3.5770     0.9080     1.9520 ha         1 M72       0.094000
     22 H9          -1.1710     1.2730     1.6020 ha         1 M72       0.117500
     23 H10         -0.7230     2.6400    -1.0420 h1         1 M72       0.014033
     24 H11          0.7960     3.5030    -0.7540 h1         1 M72       0.014033
     25 H12          0.6970     2.2910    -2.0440 h1         1 M72       0.014033
@<TRIPOS>BOND
     1     1     2 1   
     2     2     3 1   
     3     2     4 1   
     4     4     5 1   
     5     4     6 1   
     6     4    15 1   
     7     5    16 1   
     8     6     7 1   
     9     6    13 1   
    10     6    17 1   
    11     7     8 ar  
    12     7    12 ar  
    13     8     9 ar  
    14     8    18 1   
    15     9    10 ar  
    16     9    19 1   
    17    10    11 ar  
    18    10    20 1   
    19    11    12 ar  
    20    11    21 1   
    21    12    22 1   
    22    13    14 1   
    23    14    23 1   
    24    14    24 1   
    25    14    25 1   
@<TRIPOS>SUBSTRUCTURE
     1 M72         1 TEMP              0 ****  ****    0 ROOT
