@<TRIPOS>MOLECULE
M73
   79    80     1     0     0
SMALL
abcg2


@<TRIPOS>ATOM
      1 O22         21.0100    29.6480    11.7370 o          1 M73      -0.537000
      2 C21         21.2240    28.6750    12.4420 c          1 M73       0.638100
      3 O23         22.0730    27.6750    12.1060 os         1 M73      -0.475100
      4 C22         22.7590    27.7840    10.8460 c3         1 M73       0.189600
      5 C23         23.1920    26.3780    10.4410 c3         1 M73      -0.122700
      6 C24         22.0060    25.4900    10.0770 c3         1 M73      -0.080100
      7 C25         24.0530    25.7580    11.5280 c          1 M73       0.596100
      8 O26         23.7960    24.7390    12.1280 o          1 M73      -0.479000
      9 O27         25.1540    26.4860    11.7530 os         1 M73      -0.455100
     10 C28         26.0500    26.0110    12.7780 c3         1 M73       0.154900
     11 N20         20.6840    28.4400    13.6540 ns         1 M73      -0.490900
     12 C19         19.5540    29.1920    14.1750 c3         1 M73       0.134700
     13 C32         18.2480    28.3880    14.0120 c3         1 M73      -0.049100
     14 C38         17.9560    28.1140    12.5600 ca         1 M73      -0.085300
     15 C37         17.2970    29.0670    11.7800 ca         1 M73      -0.100000
     16 C36         17.0890    28.8530    10.4220 ca         1 M73      -0.112500
     17 C35         17.5410    27.6810     9.8200 ca         1 M73      -0.111000
     18 C34         18.1940    26.7240    10.5890 ca         1 M73      -0.112500
     19 C33         18.3950    26.9390    11.9490 ca         1 M73      -0.100000
     20 C17         19.8520    29.6130    15.6120 c3         1 M73       0.158300
     21 O18         19.7760    28.4540    16.4440 oh         1 M73      -0.665000
     22 C16         18.9040    30.6870    16.1600 c3         1 M73       0.179800
     23 N11         18.9360    31.9390    15.3870 n3         1 M73      -0.738500
     24 C12         19.8590    32.9870    15.8700 c3         1 M73       0.203800
     25 C13         21.3300    32.7380    15.5280 c3         1 M73      -0.058700
     26 C14         21.5560    32.6480    14.0200 c3         1 M73      -0.088100
     27 C15         22.2100    33.8100    16.1970 c3         1 M73      -0.076400
     28 C18         21.9950    35.2460    15.7170 c3         1 M73      -0.090100
     29 S8          17.5040    32.5000    14.7850 sy         1 M73       1.191600
     30 O9          17.8230    33.4780    13.7710 o          1 M73      -0.543000
     31 O10         16.7150    31.3460    14.4170 o          1 M73      -0.543000
     32 C5          16.6870    33.3360    16.1060 ca         1 M73      -0.359500
     33 C4          16.8490    34.7080    16.2660 ca         1 M73       0.023000
     34 C3          16.2670    35.3600    17.3440 ca         1 M73      -0.193000
     35 C6          15.9380    32.6030    17.0310 ca         1 M73       0.023000
     36 C7          15.3560    33.2480    18.1040 ca         1 M73      -0.193000
     37 C2          15.5180    34.6300    18.2710 ca         1 M73       0.193100
     38 O1          14.9140    35.1700    19.3520 os         1 M73      -0.343100
     39 C1          15.0700    36.5710    19.5970 c3         1 M73       0.146900
     40 H1          23.6150    28.4470    10.9670 h1         1 M73       0.064700
     41 H2          22.0870    28.1980    10.0970 h1         1 M73       0.064700
     42 H3          23.8400    26.5050     9.5680 hc         1 M73       0.079700
     43 H4          22.3420    24.5010     9.7650 hc         1 M73       0.049367
     44 H5          21.3310    25.3710    10.9230 hc         1 M73       0.049367
     45 H6          21.4510    25.9420     9.2540 hc         1 M73       0.049367
     46 H7          26.8650    26.7280    12.8070 h1         1 M73       0.049033
     47 H8          25.5370    25.9750    13.7380 h1         1 M73       0.049033
     48 H9          26.4230    25.0200    12.5230 h1         1 M73       0.049033
     49 H10         20.8900    27.5490    14.0810 hn         1 M73       0.327500
     50 H11         19.4860    30.0990    13.5790 h1         1 M73       0.097700
     51 H12         17.4320    28.9570    14.4540 hc         1 M73       0.068700
     52 H13         18.3430    27.4510    14.5620 hc         1 M73       0.068700
     53 H14         16.9570    29.9850    12.2440 ha         1 M73       0.119500
     54 H15         16.5770    29.6030     9.8310 ha         1 M73       0.109000
     55 H16         17.3830    27.5160     8.7610 ha         1 M73       0.107000
     56 H17         18.5490    25.8090    10.1310 ha         1 M73       0.109000
     57 H18         18.9080    26.1910    12.5410 ha         1 M73       0.119500
     58 H19         20.8740    29.9940    15.6200 h1         1 M73       0.053700
     59 H20         20.2220    28.6440    17.2780 ho         1 M73       0.442000
     60 H21         19.1860    30.9030    17.1940 h1         1 M73       0.057700
     61 H22         17.8940    30.2870    16.1720 h1         1 M73       0.057700
     62 H23         19.5540    33.9260    15.4150 h1         1 M73       0.048200
     63 H24         19.7410    33.0870    16.9540 h1         1 M73       0.048200
     64 H25         21.6280    31.7890    15.9780 hc         1 M73       0.040700
     65 H26         22.6170    32.5100    13.8000 hc         1 M73       0.046033
     66 H27         21.0120    31.8110    13.5850 hc         1 M73       0.046033
     67 H28         21.2210    33.5570    13.5150 hc         1 M73       0.046033
     68 H29         22.0480    33.7640    17.2780 hc         1 M73       0.037700
     69 H30         23.2550    33.5310    16.0310 hc         1 M73       0.037700
     70 H31         22.6750    35.9230    16.2380 hc         1 M73       0.034367
     71 H32         22.1870    35.3470    14.6470 hc         1 M73       0.034367
     72 H33         20.9780    35.5930    15.9080 hc         1 M73       0.034367
     73 H34         17.4230    35.2730    15.5460 ha         1 M73       0.133500
     74 H35         16.3990    36.4260    17.4490 ha         1 M73       0.129000
     75 H36         15.8030    31.5380    16.9050 ha         1 M73       0.133500
     76 H37         14.7670    32.6990    18.8270 ha         1 M73       0.129000
     77 H38         14.5220    36.7720    20.5130 h1         1 M73       0.048033
     78 H39         16.1240    36.8250    19.7320 h1         1 M73       0.048033
     79 H40         14.6510    37.1590    18.7780 h1         1 M73       0.048033
@<TRIPOS>BOND
     1     1     2 2   
     2     2     3 1   
     3     2    11 1   
     4     3     4 1   
     5     4     5 1   
     6     4    40 1   
     7     4    41 1   
     8     5     6 1   
     9     5     7 1   
    10     5    42 1   
    11     6    43 1   
    12     6    44 1   
    13     6    45 1   
    14     7     8 2   
    15     7     9 1   
    16     9    10 1   
    17    10    46 1   
    18    10    47 1   
    19    10    48 1   
    20    11    12 1   
    21    11    49 1   
    22    12    13 1   
    23    12    20 1   
    24    12    50 1   
    25    13    14 1   
    26    13    51 1   
    27    13    52 1   
    28    14    15 ar  
    29    14    19 ar  
    30    15    16 ar  
    31    15    53 1   
    32    16    17 ar  
    33    16    54 1   
    34    17    18 ar  
    35    17    55 1   
    36    18    19 ar  
    37    18    56 1   
    38    19    57 1   
    39    20    21 1   
    40    20    22 1   
    41    20    58 1   
    42    21    59 1   
    43    22    23 1   
    44    22    60 1   
    45    22    61 1   
    46    23    24 1   
    47    23    29 1   
    48    24    25 1   
    49    24    62 1   
    50    24    63 1   
    51    25    26 1   
    52    25    27 1   
    53    25    64 1   
    54    26    65 1   
    55    26    66 1   
    56    26    67 1   
    57    27    28 1   
    58    27    68 1   
    59    27    69 1   
    60    28    70 1   
    61    28    71 1   
    62    28    72 1   
    63    29    30 2   
    64    29    31 2   
    65    29    32 1   
    66    32    33 ar  
    67    32    35 ar  
    68    33    34 ar  
    69    33    73 1   
    70    34    37 ar  
    71    34    74 1   
    72    35    36 ar  
    73    35    75 1   
    74    36    37 ar  
    75    36    76 1   
    76    37    38 1   
    77    38    39 1   
    78    39    77 1   
    79    39    78 1   
    80    39    79 1   
@<TRIPOS>SUBSTRUCTURE
     1 M73         1 TEMP              0 ****  ****    0 ROOT
