@<TRIPOS>MOLECULE
M73
   79    80     1     0     0
SMALL
No Charge or Current Charge


@<TRIPOS>ATOM
      1 O22         20.7950    29.4270    11.4380 o          1 M73      -0.537000
      2 C21         20.9330    28.5040    12.2240 c          1 M73       0.638100
      3 O23         21.7980    27.4640    12.0870 os         1 M73      -0.475100
      4 C22         22.6100    27.4250    10.9010 c3         1 M73       0.189600
      5 C23         23.4870    26.1540    10.9390 c3         1 M73      -0.122700
      6 C24         22.6690    24.8390    11.0160 c3         1 M73      -0.080100
      7 C25         24.5420    26.2550    12.0530 c          1 M73       0.596100
      8 O26         24.3090    26.0940    13.2440 o          1 M73      -0.479000
      9 O27         25.7760    26.5810    11.5500 os         1 M73      -0.455100
     10 C28         26.8690    26.7260    12.4770 c3         1 M73       0.154900
     11 N20         20.2530    28.3520    13.3960 ns         1 M73      -0.490900
     12 C19         19.1870    29.2410    13.8770 c3         1 M73       0.134700
     13 C32         17.8000    28.5700    13.6780 c3         1 M73      -0.049100
     14 C38         17.5190    28.2240    12.2200 ca         1 M73      -0.085300
     15 C37         17.0790    29.2220    11.3290 ca         1 M73      -0.100000
     16 C36         16.8320    28.9110     9.9810 ca         1 M73      -0.112500
     17 C35         17.0250    27.6000     9.5140 ca         1 M73      -0.111000
     18 C34         17.4640    26.6000    10.3980 ca         1 M73      -0.112500
     19 C33         17.7100    26.9100    11.7460 ca         1 M73      -0.100000
     20 C17         19.4900    29.7090    15.3350 c3         1 M73       0.158300
     21 O18         19.3260    28.6120    16.2600 oh         1 M73      -0.665000
     22 C16         18.6310    30.9300    15.7890 c3         1 M73       0.179800
     23 N11         18.7860    32.1660    14.9610 n3         1 M73      -0.738500
     24 C12         19.7700    33.1440    15.5070 c3         1 M73       0.203800
     25 C13         21.2570    32.6970    15.5540 c3         1 M73      -0.058700
     26 C14         21.8060    32.3410    14.1480 c3         1 M73      -0.088100
     27 C15         22.1570    33.7320    16.2880 c3         1 M73      -0.076400
     28 C18         22.2590    35.1280    15.6310 c3         1 M73      -0.090100
     29 S8          17.3050    32.8980    14.5120 sy         1 M73       1.191600
     30 O9          17.6490    34.0280    13.6420 o          1 M73      -0.543000
     31 O10         16.4440    31.8190    14.0170 o          1 M73      -0.543000
     32 C5          16.6730    33.5070    16.0820 ca         1 M73      -0.359500
     33 C4          17.0010    34.8060    16.5170 ca         1 M73       0.023000
     34 C3          16.5140    35.2790    17.7470 ca         1 M73      -0.193000
     35 C6          15.8450    32.6890    16.8750 ca         1 M73       0.023000
     36 C7          15.3610    33.1690    18.1030 ca         1 M73      -0.193000
     37 C2          15.6910    34.4580    18.5460 ca         1 M73       0.193100
     38 O1          15.1830    34.8700    19.7610 os         1 M73      -0.343100
     39 C1          15.4610    36.1720    20.3070 c3         1 M73       0.146900
     40 H1          23.2540    28.3140    10.8370 h1         1 M73       0.064700
     41 H2          21.9780    27.4000    10.0030 h1         1 M73       0.064700
     42 H3          24.0310    26.1550     9.9870 hc         1 M73       0.079700
     43 H4          23.3350    23.9690    10.9580 hc         1 M73       0.049367
     44 H5          22.1080    24.7750    11.9570 hc         1 M73       0.049367
     45 H6          21.9550    24.7770    10.1870 hc         1 M73       0.049367
     46 H7          27.7910    26.9850    11.9420 h1         1 M73       0.049033
     47 H8          26.6630    27.5220    13.2040 h1         1 M73       0.049033
     48 H9          27.0450    25.7910    13.0240 h1         1 M73       0.049033
     49 H10         20.4920    27.5380    13.9470 hn         1 M73       0.327500
     50 H11         19.1990    30.1440    13.2510 h1         1 M73       0.097700
     51 H12         17.0130    29.2330    14.0520 hc         1 M73       0.068700
     52 H13         17.7450    27.6660    14.2950 hc         1 M73       0.068700
     53 H14         16.9310    30.2410    11.6810 ha         1 M73       0.119500
     54 H15         16.4930    29.6870     9.2980 ha         1 M73       0.109000
     55 H16         16.8350    27.3600     8.4700 ha         1 M73       0.107000
     56 H17         17.6160    25.5850    10.0370 ha         1 M73       0.109000
     57 H18         18.0560    26.1310    12.4220 ha         1 M73       0.119500
     58 H19         20.5410    30.0150    15.3440 h1         1 M73       0.053700
     59 H20         19.8120    28.8430    17.0820 ho         1 M73       0.442000
     60 H21         18.8720    31.1570    16.8370 h1         1 M73       0.057700
     61 H22         17.5890    30.5880    15.8040 h1         1 M73       0.057700
     62 H23         19.7480    34.0620    14.9060 h1         1 M73       0.048200
     63 H24         19.4680    33.4340    16.5240 h1         1 M73       0.048200
     64 H25         21.3130    31.7950    16.1710 hc         1 M73       0.040700
     65 H26         22.8540    32.0230    14.2090 hc         1 M73       0.046033
     66 H27         21.2340    31.5240    13.6950 hc         1 M73       0.046033
     67 H28         21.7450    33.2010    13.4700 hc         1 M73       0.046033
     68 H29         21.7870    33.8580    17.3130 hc         1 M73       0.037700
     69 H30         23.1690    33.3180    16.3810 hc         1 M73       0.037700
     70 H31         22.9220    35.7730    16.2210 hc         1 M73       0.034367
     71 H32         22.6720    35.0620    14.6180 hc         1 M73       0.034367
     72 H33         21.2790    35.6170    15.5790 hc         1 M73       0.034367
     73 H34         17.6350    35.4520    15.9110 ha         1 M73       0.133500
     74 H35         16.7850    36.2830    18.0600 ha         1 M73       0.129000
     75 H36         15.5730    31.6860    16.5490 ha         1 M73       0.133500
     76 H37         14.7240    32.5370    18.7150 ha         1 M73       0.129000
     77 H38         14.9630    36.2920    21.2770 h1         1 M73       0.048033
     78 H39         16.5400    36.3090    20.4600 h1         1 M73       0.048033
     79 H40         15.0960    36.9620    19.6390 h1         1 M73       0.048033
@<TRIPOS>BOND
     1     1     2 2   
     2     2     3 1   
     3     2    11 1   
     4     3     4 1   
     5     4     5 1   
     6     4    40 1   
     7     4    41 1   
     8     5     6 1   
     9     5     7 1   
    10     5    42 1   
    11     6    43 1   
    12     6    44 1   
    13     6    45 1   
    14     7     8 2   
    15     7     9 1   
    16     9    10 1   
    17    10    46 1   
    18    10    47 1   
    19    10    48 1   
    20    11    12 1   
    21    11    49 1   
    22    12    13 1   
    23    12    20 1   
    24    12    50 1   
    25    13    14 1   
    26    13    51 1   
    27    13    52 1   
    28    14    15 ar  
    29    14    19 ar  
    30    15    16 ar  
    31    15    53 1   
    32    16    17 ar  
    33    16    54 1   
    34    17    18 ar  
    35    17    55 1   
    36    18    19 ar  
    37    18    56 1   
    38    19    57 1   
    39    20    21 1   
    40    20    22 1   
    41    20    58 1   
    42    21    59 1   
    43    22    23 1   
    44    22    60 1   
    45    22    61 1   
    46    23    24 1   
    47    23    29 1   
    48    24    25 1   
    49    24    62 1   
    50    24    63 1   
    51    25    26 1   
    52    25    27 1   
    53    25    64 1   
    54    26    65 1   
    55    26    66 1   
    56    26    67 1   
    57    27    28 1   
    58    27    68 1   
    59    27    69 1   
    60    28    70 1   
    61    28    71 1   
    62    28    72 1   
    63    29    30 2   
    64    29    31 2   
    65    29    32 1   
    66    32    33 ar  
    67    32    35 ar  
    68    33    34 ar  
    69    33    73 1   
    70    34    37 ar  
    71    34    74 1   
    72    35    36 ar  
    73    35    75 1   
    74    36    37 ar  
    75    36    76 1   
    76    37    38 1   
    77    38    39 1   
    78    39    77 1   
    79    39    78 1   
    80    39    79 1   
@<TRIPOS>SUBSTRUCTURE
     1 M73         1 TEMP              0 ****  ****    0 ROOT
