@<TRIPOS>MOLECULE
M74
   22    22     1     0     0
SMALL
No Charge or Current Charge


@<TRIPOS>ATOM
      1 O3          -2.7780    -1.5610    -0.5580 o          1 M74      -0.713500
      2 C           -2.6570    -0.3480    -0.4520 c          1 M74       0.700000
      3 O           -3.6060     0.4240    -0.3870 o          1 M74      -0.713500
      4 CA          -1.2180     0.2740    -0.4880 c3         1 M74      -0.017700
      5 CB          -0.3110    -0.3250     0.6250 c3         1 M74       0.208600
      6 O1          -0.5920     0.3740     1.8410 oh         1 M74      -0.658000
      7 CG           1.1840    -0.2430     0.2910 ca         1 M74      -0.067300
      8 CD2          1.8620     0.9950     0.2350 ca         1 M74      -0.101500
      9 CE2          3.2330     1.0450    -0.0760 ca         1 M74      -0.121500
     10 CZ           3.9400    -0.1400    -0.3330 ca         1 M74      -0.137000
     11 CE1          3.2770    -1.3760    -0.2790 ca         1 M74      -0.121500
     12 CD1          1.9070    -1.4270     0.0310 ca         1 M74      -0.101500
     13 O2          -1.2430     1.7360    -0.4060 oh         1 M74      -0.712000
     14 H2          -0.7960    -0.0270    -1.4560 h1         1 M74       0.037700
     15 H3          -0.5650    -1.3880     0.7430 h1         1 M74       0.090700
     16 H4          -0.8020     1.2820     1.5210 ho         1 M74       0.447000
     17 H5           1.3290     1.9210     0.4320 ha         1 M74       0.113000
     18 H6           3.7450     2.0040    -0.1170 ha         1 M74       0.093500
     19 H7           5.0010    -0.1000    -0.5730 ha         1 M74       0.091000
     20 H8           3.8240    -2.2950    -0.4780 ha         1 M74       0.093500
     21 H9           1.4060    -2.3920     0.0680 ha         1 M74       0.113000
     22 H10         -2.1920     1.9830    -0.5430 ho         1 M74       0.476000
@<TRIPOS>BOND
     1     1     2 1   
     2     2     3 1   
     3     2     4 1   
     4     4     5 1   
     5     4    13 1   
     6     4    14 1   
     7     5     6 1   
     8     5     7 1   
     9     5    15 1   
    10     6    16 1   
    11     7     8 ar  
    12     7    12 ar  
    13     8     9 ar  
    14     8    17 1   
    15     9    10 ar  
    16     9    18 1   
    17    10    11 ar  
    18    10    19 1   
    19    11    12 ar  
    20    11    20 1   
    21    12    21 1   
    22    13    22 1   
@<TRIPOS>SUBSTRUCTURE
     1 M74         1 TEMP              0 ****  ****    0 ROOT
