@<TRIPOS>MOLECULE
M74
   22    22     1     0     0
SMALL
bcc


@<TRIPOS>ATOM
      1 O3          -2.9600    -1.4330     0.2150 o          1 M74      -0.818800
      2 C           -2.6540    -0.3250    -0.2440 c          1 M74       0.910600
      3 O           -3.4120     0.6360    -0.5060 o          1 M74      -0.818800
      4 CA          -1.1610    -0.0670    -0.5570 c3         1 M74      -0.040900
      5 CB          -0.3020    -0.2570     0.6980 c3         1 M74       0.185400
      6 O1          -0.6910     0.6550     1.6950 oh         1 M74      -0.595800
      7 CG           1.1710    -0.1660     0.3590 ca         1 M74      -0.067300
      8 CD2          1.9250     0.9690     0.6350 ca         1 M74      -0.119500
      9 CE2          3.2680     1.0320     0.2790 ca         1 M74      -0.139500
     10 CZ           3.8760    -0.0400    -0.3580 ca         1 M74      -0.155000
     11 CE1          3.1310    -1.1810    -0.6340 ca         1 M74      -0.139500
     12 CD1          1.7920    -1.2390    -0.2770 ca         1 M74      -0.119500
     13 O2          -1.0040     1.2400    -1.0440 oh         1 M74      -0.649800
     14 H2          -0.8410    -0.8040    -1.3080 h1         1 M74       0.037700
     15 H3          -0.5060    -1.2590     1.0850 h1         1 M74       0.090700
     16 H4          -0.8160     1.5120     1.2700 ho         1 M74       0.408000
     17 H5           1.4780     1.8140     1.1420 ha         1 M74       0.131000
     18 H6           3.8400     1.9230     0.5040 ha         1 M74       0.111500
     19 H7           4.9220     0.0090    -0.6330 ha         1 M74       0.109000
     20 H8           3.5950    -2.0280    -1.1230 ha         1 M74       0.111500
     21 H9           1.2230    -2.1370    -0.4930 ha         1 M74       0.131000
     22 H10         -1.9260     1.5630    -1.0640 ho         1 M74       0.437000
@<TRIPOS>BOND
     1     1     2 1   
     2     2     3 1   
     3     2     4 1   
     4     4     5 1   
     5     4    13 1   
     6     4    14 1   
     7     5     6 1   
     8     5     7 1   
     9     5    15 1   
    10     6    16 1   
    11     7     8 ar  
    12     7    12 ar  
    13     8     9 ar  
    14     8    17 1   
    15     9    10 ar  
    16     9    18 1   
    17    10    11 ar  
    18    10    19 1   
    19    11    12 ar  
    20    11    20 1   
    21    12    21 1   
    22    13    22 1   
@<TRIPOS>SUBSTRUCTURE
     1 M74         1 TEMP              0 ****  ****    0 ROOT
