@<TRIPOS>MOLECULE
M75
   21    22     1     0     0
SMALL
abcg2


@<TRIPOS>ATOM
      1 C10          0.5970    -3.2720     6.5330 cx         1 M75      -0.131900
      2 C03          0.9090     0.3860     4.3990 cc         1 M75      -0.002100
      3 C04          1.3660     1.2010     5.4040 cd         1 M75      -0.092000
      4 C06          2.6080     1.3910     3.5900 cd         1 M75       0.388400
      5 C09          1.0880    -2.7650     5.2040 cx         1 M75       0.169500
      6 C11          0.9680    -4.2400     5.4450 cx         1 M75      -0.131900
      7 N05          2.4480     1.8340     4.8670 na         1 M75      -0.299500
      8 N07          1.6890     0.5070     3.2720 nc         1 M75      -0.595000
      9 N08          0.1700    -2.1720     4.2740 n7         1 M75      -0.930300
     10 O01         -1.0380    -0.5220     5.7710 o          1 M75      -0.556000
     11 O12         -1.3000    -0.4850     3.2960 o          1 M75      -0.556000
     12 S02         -0.4620    -0.6920     4.4560 sy         1 M75       1.205200
     13 H1           1.2610    -3.1650     7.3800 hc         1 M75       0.080950
     14 H2          -0.4540    -3.1380     6.7470 hc         1 M75       0.080950
     15 H3           1.0240     1.3690     6.4090 h4         1 M75       0.181000
     16 H4           3.3990     1.7440     2.9490 h5         1 M75       0.063100
     17 H5           2.0880    -2.3460     5.1720 h1         1 M75       0.085700
     18 H6           0.1630    -4.7540     4.9370 hc         1 M75       0.080950
     19 H7           1.8870    -4.8030     5.5340 hc         1 M75       0.080950
     20 H8           3.0310     2.5120     5.3370 hn         1 M75       0.357000
     21 H10         -0.1760    -2.6960     3.4840 hn         1 M75       0.520000
@<TRIPOS>BOND
     1     1     5 1   
     2     1     6 1   
     3     1    13 1   
     4     1    14 1   
     5     2     3 2   
     6     2     8 1   
     7     2    12 1   
     8     3     7 1   
     9     3    15 1   
    10     4     7 1   
    11     4     8 2   
    12     4    16 1   
    13     5     6 1   
    14     5     9 1   
    15     5    17 1   
    16     6    18 1   
    17     6    19 1   
    18     7    20 1   
    19     9    12 1   
    20     9    21 1   
    21    10    12 2   
    22    11    12 2   
@<TRIPOS>SUBSTRUCTURE
     1 M75         1 TEMP              0 ****  ****    0 ROOT
