@<TRIPOS>MOLECULE
M75
   21    22     1     0     0
SMALL
No Charge or Current Charge


@<TRIPOS>ATOM
      1 C10          1.5470    -2.6340     6.0250 cx         1 M75      -0.131900
      2 C03          0.8000     0.2280     4.4520 cc         1 M75      -0.002100
      3 C04          0.9920     0.8770     5.6460 cd         1 M75      -0.092000
      4 C06          2.7970     1.0740     4.3350 cd         1 M75       0.388400
      5 C09          0.8490    -2.7300     4.6920 cx         1 M75       0.169500
      6 C11          1.0680    -3.9720     5.5170 cx         1 M75      -0.131900
      7 N05          2.2680     1.4140     5.5660 na         1 M75      -0.299500
      8 N07          1.9210     0.3560     3.6480 nc         1 M75      -0.595000
      9 N08         -0.5060    -2.2370     4.6210 n7         1 M75      -0.930300
     10 O01         -1.8570    -0.1480     4.8170 o          1 M75      -0.556000
     11 O12         -0.8280    -0.8710     2.5740 o          1 M75      -0.556000
     12 S02         -0.7460    -0.6900     4.0270 sy         1 M75       1.205200
     13 H1           2.6160    -2.4360     6.0160 hc         1 M75       0.080950
     14 H2           1.0060    -2.1800     6.8510 hc         1 M75       0.080950
     15 H3           0.3400     0.9830     6.5080 h4         1 M75       0.181000
     16 H4           3.7910     1.3750     4.0220 h5         1 M75       0.063100
     17 H5           1.4590    -2.6250     3.7900 h1         1 M75       0.085700
     18 H6           0.2070    -4.4200     6.0070 hc         1 M75       0.080950
     19 H7           1.8160    -4.6800     5.1710 hc         1 M75       0.080950
     20 H8           2.7440     1.9600     6.2730 hn         1 M75       0.357000
     21 H10         -1.0180    -2.7490     3.9040 hn         1 M75       0.520000
@<TRIPOS>BOND
     1     1     5 1   
     2     1     6 1   
     3     1    13 1   
     4     1    14 1   
     5     2     3 2   
     6     2     8 1   
     7     2    12 1   
     8     3     7 1   
     9     3    15 1   
    10     4     7 1   
    11     4     8 2   
    12     4    16 1   
    13     5     6 1   
    14     5     9 1   
    15     5    17 1   
    16     6    18 1   
    17     6    19 1   
    18     7    20 1   
    19     9    12 1   
    20     9    21 1   
    21    10    12 2   
    22    11    12 2   
@<TRIPOS>SUBSTRUCTURE
     1 M75         1 TEMP              0 ****  ****    0 ROOT
