@<TRIPOS>MOLECULE
M76
   37    39     1     0     0
SMALL
abcg2


@<TRIPOS>ATOM
      1 O1           0.0050     0.9850     2.1640 o          1 M76      -0.596100
      2 C2           0.0250     0.8080     0.9540 c          1 M76       0.643300
      3 N3           1.0880     1.0710     0.1770 ns         1 M76      -0.495900
      4 C4           2.3770     1.4930     0.6720 c3         1 M76       0.148300
      5 C5           3.4690     0.4960     0.3720 ca         1 M76      -0.128300
      6 C6           3.3040    -0.8570     0.6600 ca         1 M76      -0.071000
      7 C7           4.3150    -1.7700     0.4050 ca         1 M76      -0.155000
      8 C8           5.4990    -1.3120    -0.1450 ca         1 M76       0.174000
      9 C10          5.6990     0.0190    -0.4440 ca         1 M76      -0.155000
     10 C11          4.6710     0.9170    -0.1830 ca         1 M76      -0.071000
     11 C12         -1.1760     0.2970     0.2230 cc         1 M76      -0.273400
     12 C13         -1.1190    -0.9020    -0.4140 cd         1 M76       0.299700
     13 O14         -0.0160    -1.6250    -0.4600 oh         1 M76      -0.518100
     14 N15         -2.2380    -1.4230    -1.0180 n          1 M76      -0.228500
     15 O16         -2.0610    -2.5820    -1.7040 oh         1 M76      -0.428100
     16 C17         -3.4850    -0.8240    -1.0760 c          1 M76       0.597600
     17 O18         -4.4010    -1.3730    -1.6580 o          1 M76      -0.512000
     18 C19         -3.5580     0.4530    -0.3800 ca         1 M76      -0.191600
     19 C20         -4.7820     1.1330    -0.3800 ca         1 M76      -0.040000
     20 C21         -4.9040     2.3480     0.2520 ca         1 M76      -0.136000
     21 C22         -3.7900     2.9000     0.8920 ca         1 M76      -0.066000
     22 C23         -2.5800     2.2440     0.9010 ca         1 M76      -0.119000
     23 C24         -2.4290     0.9970     0.2650 ca         1 M76       0.066200
     24 F9           6.4810    -2.1940    -0.3980 f          1 M76      -0.179000
     25 H1           0.9960     0.9410    -0.8180 hn         1 M76       0.319500
     26 H2           2.6350     2.4600     0.2360 h1         1 M76       0.066200
     27 H3           2.2890     1.6470     1.7470 h1         1 M76       0.066200
     28 H4           2.3750    -1.2140     1.0840 ha         1 M76       0.121500
     29 H5           4.1840    -2.8210     0.6270 ha         1 M76       0.132000
     30 H6           6.6320     0.3530    -0.8780 ha         1 M76       0.132000
     31 H7           4.8160     1.9640    -0.4200 ha         1 M76       0.121500
     32 H9          -2.4530    -3.2910    -1.1700 ho         1 M76       0.464000
     33 H10         -5.6320     0.6920    -0.8830 ha         1 M76       0.135000
     34 H11         -5.8510     2.8710     0.2560 ha         1 M76       0.122000
     35 H12         -3.8760     3.8570     1.3890 ha         1 M76       0.118000
     36 H13         -1.7430     2.7000     1.4100 ha         1 M76       0.134000
     37 H8          -0.1420    -2.4240    -0.9940 ho         1 M76       0.502000
@<TRIPOS>BOND
     1     1     2 2   
     2     2     3 1   
     3     2    11 1   
     4     3     4 1   
     5     3    25 1   
     6     4     5 1   
     7     4    26 1   
     8     4    27 1   
     9     5     6 ar  
    10     5    10 ar  
    11     6     7 ar  
    12     6    28 1   
    13     7     8 ar  
    14     7    29 1   
    15     8     9 ar  
    16     8    24 1   
    17     9    10 ar  
    18     9    30 1   
    19    10    31 1   
    20    11    12 2   
    21    11    23 1   
    22    12    13 1   
    23    12    14 1   
    24    13    37 1   
    25    14    15 1   
    26    14    16 1   
    27    15    32 1   
    28    16    17 2   
    29    16    18 1   
    30    18    19 ar  
    31    18    23 ar  
    32    19    20 ar  
    33    19    33 1   
    34    20    21 ar  
    35    20    34 1   
    36    21    22 ar  
    37    21    35 1   
    38    22    23 ar  
    39    22    36 1   
@<TRIPOS>SUBSTRUCTURE
     1 M76         1 TEMP              0 ****  ****    0 ROOT
