@<TRIPOS>MOLECULE
M76
   37    39     1     0     0
SMALL
No Charge or Current Charge


@<TRIPOS>ATOM
      1 O1          -0.1620     1.8130     1.8620 o          1 M76      -0.596100
      2 C2          -0.0580     1.0430     0.9200 c          1 M76       0.643300
      3 N3           1.1820     0.5340     0.6260 ns         1 M76      -0.495900
      4 C4           2.4110     0.8510     1.3470 c3         1 M76       0.148300
      5 C5           3.5940     0.1100     0.7450 ca         1 M76      -0.128300
      6 C6           3.9240    -1.1830     1.1970 ca         1 M76      -0.071000
      7 C7           5.0150    -1.8700     0.6350 ca         1 M76      -0.155000
      8 C8           5.7750    -1.2670    -0.3780 ca         1 M76       0.174000
      9 C10          5.4510     0.0200    -0.8350 ca         1 M76      -0.155000
     10 C11          4.3610     0.7090    -0.2750 ca         1 M76      -0.071000
     11 C12         -1.2170     0.5840     0.0650 cc         1 M76      -0.273400
     12 C13         -1.1180    -0.4900    -0.8290 cd         1 M76       0.299700
     13 O14          0.0390    -1.0850    -1.1610 oh         1 M76      -0.518100
     14 N15         -2.2190    -1.0980    -1.4160 n          1 M76      -0.228500
     15 O16         -2.0330    -2.2740    -2.2600 oh         1 M76      -0.428100
     16 C17         -3.5400    -0.6770    -1.1790 c          1 M76       0.597600
     17 O18         -4.5010    -1.2950    -1.6250 o          1 M76      -0.512000
     18 C19         -3.7040     0.5660    -0.3730 ca         1 M76      -0.191600
     19 C20         -4.9950     1.1240    -0.2290 ca         1 M76      -0.040000
     20 C21         -5.1710     2.3510     0.4200 ca         1 M76      -0.136000
     21 C22         -4.0540     3.0410     0.8980 ca         1 M76      -0.066000
     22 C23         -2.7720     2.4830     0.7640 ca         1 M76      -0.119000
     23 C24         -2.5690     1.2070     0.1750 ca         1 M76       0.066200
     24 F9           6.8220    -1.9280    -0.9170 f          1 M76      -0.179000
     25 H1           1.2310    -0.1160    -0.1480 hn         1 M76       0.319500
     26 H2           2.5850     1.9340     1.3030 h1         1 M76       0.066200
     27 H3           2.2910     0.5690     2.4020 h1         1 M76       0.066200
     28 H4           3.3350    -1.6560     1.9810 ha         1 M76       0.121500
     29 H5           5.2710    -2.8680     0.9830 ha         1 M76       0.132000
     30 H6           6.0430     0.4800    -1.6220 ha         1 M76       0.132000
     31 H7           4.1110     1.7050    -0.6350 ha         1 M76       0.121500
     32 H9          -2.3180    -3.0390    -1.7060 ho         1 M76       0.464000
     33 H10         -5.8670     0.6190    -0.6420 ha         1 M76       0.135000
     34 H11         -6.1650     2.7810     0.5200 ha         1 M76       0.122000
     35 H12         -4.1760     4.0150     1.3660 ha         1 M76       0.118000
     36 H13         -1.9460     3.0890     1.1120 ha         1 M76       0.134000
     37 H8          -0.2320    -1.7500    -1.8320 ho         1 M76       0.502000
@<TRIPOS>BOND
     1     1     2 2   
     2     2     3 1   
     3     2    11 1   
     4     3     4 1   
     5     3    25 1   
     6     4     5 1   
     7     4    26 1   
     8     4    27 1   
     9     5     6 ar  
    10     5    10 ar  
    11     6     7 ar  
    12     6    28 1   
    13     7     8 ar  
    14     7    29 1   
    15     8     9 ar  
    16     8    24 1   
    17     9    10 ar  
    18     9    30 1   
    19    10    31 1   
    20    11    12 2   
    21    11    23 1   
    22    12    13 1   
    23    12    14 1   
    24    13    37 1   
    25    14    15 1   
    26    14    16 1   
    27    15    32 1   
    28    16    17 2   
    29    16    18 1   
    30    18    19 ar  
    31    18    23 ar  
    32    19    20 ar  
    33    19    33 1   
    34    20    21 ar  
    35    20    34 1   
    36    21    22 ar  
    37    21    35 1   
    38    22    23 ar  
    39    22    36 1   
@<TRIPOS>SUBSTRUCTURE
     1 M76         1 TEMP              0 ****  ****    0 ROOT
