@<TRIPOS>MOLECULE
M77
   37    39     1     0     0
SMALL
No Charge or Current Charge


@<TRIPOS>ATOM
      1 O1          -0.8710     1.2380     1.6330 o          1 M77      -0.539000
      2 S1          -0.6440    -0.1990     1.7890 sy         1 M77       1.191600
      3 O2          -0.5760    -0.8210     3.1170 o          1 M77      -0.539000
      4 N4          -1.9220    -1.0090     0.9960 n3         1 M77      -0.811500
      5 C22         -3.2790    -0.8500     1.5810 c3         1 M77       0.195800
      6 C21         -4.0570     0.4560     1.2370 c3         1 M77       0.150800
      7 N17         -4.1880     0.7210    -0.2250 n7         1 M77      -0.883400
      8 C16         -2.9810     1.2530    -0.8850 c3         1 M77       0.174800
      9 C20         -1.9800     0.1570    -1.3180 c3         1 M77      -0.136400
     10 C15         -1.8760    -1.1380    -0.4760 c3         1 M77       0.234800
     11 C5           0.8190    -0.7830     0.8710 ca         1 M77      -0.259500
     12 C6           1.1100    -2.1550     1.0520 ca         1 M77       0.003000
     13 C7           2.1960    -2.7610     0.4090 ca         1 M77      -0.143000
     14 C8           3.0200    -2.0080    -0.4320 ca         1 M77      -0.027000
     15 C9           2.7540    -0.6430    -0.6310 ca         1 M77      -0.119000
     16 C10          1.6600    -0.0080     0.0100 ca         1 M77       0.073000
     17 C11          1.4970     1.3700    -0.2710 ca         1 M77      -0.154000
     18 C14          3.5960     0.0970    -1.4840 ca         1 M77       0.368900
     19 N13          3.4240     1.4110    -1.7400 nb         1 M77      -0.662000
     20 C12          2.3870     2.0250    -1.1360 ca         1 M77       0.344900
     21 H221        -3.9030    -1.6900     1.2480 h1         1 M77       0.057200
     22 H222        -3.2280    -0.9340     2.6750 h1         1 M77       0.057200
     23 H211        -5.0560     0.3620     1.6850 h1         1 M77       0.065700
     24 H212        -3.5710     1.3030     1.7410 h1         1 M77       0.065700
     25 H17         -4.4940    -0.1320    -0.7080 hn         1 M77       0.418000
     26 H161        -3.2650     1.8160    -1.7860 h1         1 M77       0.054700
     27 H162        -2.4740     1.9720    -0.2270 h1         1 M77       0.054700
     28 H201        -2.2280    -0.1440    -2.3430 hc         1 M77       0.059700
     29 H202        -0.9880     0.6160    -1.3840 hc         1 M77       0.059700
     30 H151        -0.9660    -1.6690    -0.7840 h1         1 M77       0.050200
     31 H152        -2.7030    -1.7920    -0.7880 h1         1 M77       0.050200
     32 H6           0.4800    -2.7690     1.6940 ha         1 M77       0.120000
     33 H7           2.3980    -3.8190     0.5630 ha         1 M77       0.121000
     34 H8           3.8620    -2.4860    -0.9280 ha         1 M77       0.120000
     35 H11          0.7090     1.9750     0.1440 ha         1 M77       0.140000
     36 H14          4.4400    -0.3780    -1.9820 h4         1 M77       0.018100
     37 H12          2.2620     3.0850    -1.3550 h4         1 M77       0.025100
@<TRIPOS>BOND
     1     1     2 2   
     2     2     3 2   
     3     2     4 1   
     4     2    11 1   
     5     4     5 1   
     6     4    10 1   
     7     5     6 1   
     8     5    21 1   
     9     5    22 1   
    10     6     7 1   
    11     6    23 1   
    12     6    24 1   
    13     7     8 1   
    14     7    25 1   
    15     8     9 1   
    16     8    26 1   
    17     8    27 1   
    18     9    10 1   
    19     9    28 1   
    20     9    29 1   
    21    10    30 1   
    22    10    31 1   
    23    11    12 ar  
    24    11    16 ar  
    25    12    13 ar  
    26    12    32 1   
    27    13    14 ar  
    28    13    33 1   
    29    14    15 ar  
    30    14    34 1   
    31    15    16 ar  
    32    15    18 ar  
    33    16    17 ar  
    34    17    20 ar  
    35    17    35 1   
    36    18    19 ar  
    37    18    36 1   
    38    19    20 ar  
    39    20    37 1   
@<TRIPOS>SUBSTRUCTURE
     1 M77         1 TEMP              0 ****  ****    0 ROOT
