@<TRIPOS>MOLECULE
M77
   37    39     1     0     0
SMALL
abcg2


@<TRIPOS>ATOM
      1 O1          -0.6390     1.2950    -1.0380 o          1 M77      -0.539000
      2 S1          -0.5890     0.5250     0.1980 sy         1 M77       1.191600
      3 O2          -0.5390     1.2360     1.4680 o          1 M77      -0.539000
      4 N4          -1.8340    -0.5110     0.2210 n3         1 M77      -0.811500
      5 C22         -2.5200    -0.8530     1.4660 c3         1 M77       0.195800
      6 C21         -3.7380     0.0280     1.7240 c3         1 M77       0.150800
      7 N17         -4.7010     0.1280     0.6500 n7         1 M77      -0.883400
      8 C16         -4.2540     0.8160    -0.5470 c3         1 M77       0.174800
      9 C20         -3.5030    -0.0040    -1.5980 c3         1 M77      -0.136400
     10 C15         -2.4400    -0.9490    -1.0350 c3         1 M77       0.234800
     11 C5           0.8780    -0.4850     0.1070 ca         1 M77      -0.259500
     12 C6           0.7700    -1.8490     0.1320 ca         1 M77       0.003000
     13 C7           1.9140    -2.6670     0.0550 ca         1 M77      -0.143000
     14 C8           3.1510    -2.1000    -0.0430 ca         1 M77      -0.027000
     15 C9           3.2890    -0.6960    -0.0620 ca         1 M77      -0.119000
     16 C10          2.1510     0.1440     0.0140 ca         1 M77       0.073000
     17 C11          2.3900     1.5370    -0.0020 ca         1 M77      -0.154000
     18 C14          4.5640    -0.0910    -0.1550 ca         1 M77       0.368900
     19 N13          4.7620     1.1980    -0.1720 nb         1 M77      -0.662000
     20 C12          3.6750     1.9950    -0.0930 ca         1 M77       0.344900
     21 H221        -2.8210    -1.9000     1.3790 h1         1 M77       0.057200
     22 H222        -1.8280    -0.7990     2.3060 h1         1 M77       0.057200
     23 H211        -4.2410    -0.3540     2.6160 h1         1 M77       0.065700
     24 H212        -3.3970     1.0370     1.9670 h1         1 M77       0.065700
     25 H17         -5.1160    -0.7700     0.4340 hn         1 M77       0.418000
     26 H161        -5.1180     1.2690    -1.0420 h1         1 M77       0.054700
     27 H162        -3.6280     1.6540    -0.2260 h1         1 M77       0.054700
     28 H201        -4.2100    -0.6110    -2.1700 hc         1 M77       0.059700
     29 H202        -3.0500     0.6920    -2.3080 hc         1 M77       0.059700
     30 H151        -1.6650    -1.1330    -1.7790 h1         1 M77       0.050200
     31 H152        -2.8780    -1.9240    -0.8190 h1         1 M77       0.050200
     32 H6          -0.2010    -2.3200     0.2110 ha         1 M77       0.120000
     33 H7           1.7960    -3.7420     0.0740 ha         1 M77       0.121000
     34 H8           4.0380    -2.7180    -0.1040 ha         1 M77       0.120000
     35 H11          1.5910     2.2600     0.0570 ha         1 M77       0.140000
     36 H14          5.4390    -0.7320    -0.2170 h4         1 M77       0.018100
     37 H12          3.8660     3.0610    -0.1050 h4         1 M77       0.025100
@<TRIPOS>BOND
     1     1     2 2   
     2     2     3 2   
     3     2     4 1   
     4     2    11 1   
     5     4     5 1   
     6     4    10 1   
     7     5     6 1   
     8     5    21 1   
     9     5    22 1   
    10     6     7 1   
    11     6    23 1   
    12     6    24 1   
    13     7     8 1   
    14     7    25 1   
    15     8     9 1   
    16     8    26 1   
    17     8    27 1   
    18     9    10 1   
    19     9    28 1   
    20     9    29 1   
    21    10    30 1   
    22    10    31 1   
    23    11    12 ar  
    24    11    16 ar  
    25    12    13 ar  
    26    12    32 1   
    27    13    14 ar  
    28    13    33 1   
    29    14    15 ar  
    30    14    34 1   
    31    15    16 ar  
    32    15    18 ar  
    33    16    17 ar  
    34    17    20 ar  
    35    17    35 1   
    36    18    19 ar  
    37    18    36 1   
    38    19    20 ar  
    39    20    37 1   
@<TRIPOS>SUBSTRUCTURE
     1 M77         1 TEMP              0 ****  ****    0 ROOT
