@<TRIPOS>MOLECULE
M78
   29    30     1     0     0
SMALL
No Charge or Current Charge


@<TRIPOS>ATOM
      1 C10          0.2270     0.7850     0.0680 ca         1 M78       0.005000
      2 C01         -2.5970     2.3510     0.1850 c3         1 M78      -0.018900
      3 C02         -2.3460     0.8720     0.0470 cc         1 M78      -0.117400
      4 C03         -3.2840    -0.1530    -0.0570 cd         1 M78      -0.061300
      5 C04         -4.7860    -0.0420    -0.0580 c3         1 M78      -0.037900
      6 C06         -1.2660    -1.1080    -0.1280 ca         1 M78      -0.024200
      7 C07         -0.1940    -2.0040    -0.2000 ca         1 M78      -0.141000
      8 C08          1.1170    -1.4880    -0.1370 ca         1 M78      -0.070000
      9 C09         -1.0610     0.2330     0.0000 ca         1 M78      -0.112800
     10 C11          1.3440    -0.0860    -0.0010 ca         1 M78      -0.190600
     11 C12          2.7360     0.5030     0.0710 c          1 M78       0.614700
     12 C14          5.1990     0.0040     0.0520 c3         1 M78       0.095300
     13 N05         -2.6170    -1.3960    -0.1690 na         1 M78      -0.223700
     14 N13          3.7880    -0.3820    -0.0010 ns         1 M78      -0.506900
     15 O15          2.9290     1.7060     0.1870 o          1 M78      -0.610100
     16 H1           0.3550     1.8600     0.1720 ha         1 M78       0.137000
     17 H2          -2.3270     2.6980     1.1890 hc         1 M78       0.039367
     18 H3          -2.0010     2.9170    -0.5410 hc         1 M78       0.039367
     19 H4          -3.6510     2.5980     0.0150 hc         1 M78       0.039367
     20 H5          -5.2640    -1.0280    -0.0840 hc         1 M78       0.049367
     21 H6          -5.1410     0.4770     0.8400 hc         1 M78       0.049367
     22 H7          -5.1350     0.5210    -0.9320 hc         1 M78       0.049367
     23 H8          -0.3660    -3.0730    -0.3030 ha         1 M78       0.115000
     24 H9           1.9450    -2.1900    -0.1930 ha         1 M78       0.107000
     25 H10          5.8270    -0.8930    -0.0260 h1         1 M78       0.038033
     26 H11          5.4290     0.6800    -0.7810 h1         1 M78       0.038033
     27 H12          5.4080     0.5110     1.0030 h1         1 M78       0.038033
     28 H13         -3.0440    -2.3110    -0.2590 hn         1 M78       0.348000
     29 H14          3.5570    -1.3620    -0.0960 hn         1 M78       0.313500
@<TRIPOS>BOND
     1     1     9 ar  
     2     1    10 ar  
     3     1    16 1   
     4     2     3 1   
     5     2    17 1   
     6     2    18 1   
     7     2    19 1   
     8     3     4 2   
     9     3     9 1   
    10     4     5 1   
    11     4    13 1   
    12     5    20 1   
    13     5    21 1   
    14     5    22 1   
    15     6     7 ar  
    16     6     9 ar  
    17     6    13 1   
    18     7     8 ar  
    19     7    23 1   
    20     8    10 ar  
    21     8    24 1   
    22    10    11 1   
    23    11    14 1   
    24    11    15 2   
    25    12    14 1   
    26    12    25 1   
    27    12    26 1   
    28    12    27 1   
    29    13    28 1   
    30    14    29 1   
@<TRIPOS>SUBSTRUCTURE
     1 M78         1 TEMP              0 ****  ****    0 ROOT
