@<TRIPOS>MOLECULE
M78
   29    30     1     0     0
SMALL
bcc


@<TRIPOS>ATOM
      1 C10          0.2680     0.7470     0.1490 ca         1 M78      -0.013000
      2 C01         -2.5570     2.3650    -0.0210 c3         1 M78      -0.018900
      3 C02         -2.3190     0.8930    -0.0100 cc         1 M78      -0.117400
      4 C03         -3.2430    -0.1170    -0.0690 cd         1 M78      -0.061300
      5 C04         -4.7260    -0.0640    -0.1520 c3         1 M78      -0.037900
      6 C06         -1.2510    -1.1350     0.0460 ca         1 M78      -0.024200
      7 C07         -0.1970    -2.0430     0.1020 ca         1 M78      -0.159000
      8 C08          1.0850    -1.5340     0.1670 ca         1 M78      -0.088000
      9 C09         -1.0340     0.2610     0.0660 ca         1 M78      -0.112800
     10 C11          1.3310    -0.1460     0.1850 ca         1 M78      -0.190600
     11 C12          2.7090     0.4180     0.2660 c          1 M78       0.681700
     12 C14          5.0870     0.0620    -0.1440 c3         1 M78       0.095300
     13 N05         -2.5930    -1.3300    -0.0300 na         1 M78      -0.173400
     14 N13          3.7100    -0.3710    -0.1600 ns         1 M78      -0.573900
     15 O15          2.9160     1.5480     0.6960 o          1 M78      -0.610100
     16 H1           0.4530     1.8140     0.1750 ha         1 M78       0.155000
     17 H2          -2.2820     2.8280     0.9290 hc         1 M78       0.039367
     18 H3          -1.9650     2.8560    -0.7970 hc         1 M78       0.039367
     19 H4          -3.6020     2.6070    -0.2100 hc         1 M78       0.039367
     20 H5          -5.0980    -0.6670    -0.9820 hc         1 M78       0.049367
     21 H6          -5.1910    -0.4410     0.7600 hc         1 M78       0.049367
     22 H7          -5.0720     0.9570    -0.3020 hc         1 M78       0.049367
     23 H8          -0.3700    -3.1110     0.1030 ha         1 M78       0.133000
     24 H9           1.9050    -2.2370     0.2340 ha         1 M78       0.125000
     25 H10          5.7110    -0.7720    -0.4530 h1         1 M78       0.038033
     26 H11          5.2660     0.8960    -0.8260 h1         1 M78       0.038033
     27 H12          5.3940     0.3670     0.8560 h1         1 M78       0.038033
     28 H13         -3.0500    -2.2260    -0.0750 hn         1 M78       0.297700
     29 H14          3.4970    -1.2260    -0.6430 hn         1 M78       0.313500
@<TRIPOS>BOND
     1     1     9 ar  
     2     1    10 ar  
     3     1    16 1   
     4     2     3 1   
     5     2    17 1   
     6     2    18 1   
     7     2    19 1   
     8     3     4 2   
     9     3     9 1   
    10     4     5 1   
    11     4    13 1   
    12     5    20 1   
    13     5    21 1   
    14     5    22 1   
    15     6     7 ar  
    16     6     9 ar  
    17     6    13 1   
    18     7     8 ar  
    19     7    23 1   
    20     8    10 ar  
    21     8    24 1   
    22    10    11 1   
    23    11    14 1   
    24    11    15 2   
    25    12    14 1   
    26    12    25 1   
    27    12    26 1   
    28    12    27 1   
    29    13    28 1   
    30    14    29 1   
@<TRIPOS>SUBSTRUCTURE
     1 M78         1 TEMP              0 ****  ****    0 ROOT
