@<TRIPOS>MOLECULE
M7C
   41    43     1     0     0
SMALL
No Charge or Current Charge


@<TRIPOS>ATOM
      1 C15         -4.9580    -0.3080    -1.1770 ca         1 M7C      -0.052000
      2 C14         -5.7430     0.8530    -1.2880 ca         1 M7C      -0.132000
      3 C13         -5.7460     1.8040    -0.2560 ca         1 M7C      -0.081000
      4 C12         -4.9640     1.5920     0.8890 ca         1 M7C      -0.132000
      5 C11         -4.1770     0.4330     1.0050 ca         1 M7C      -0.052000
      6 C10         -4.1620    -0.5330    -0.0310 ca         1 M7C      -0.139600
      7 C9          -3.3200    -1.7910     0.0580 c          1 M7C       0.723100
      8 O8          -3.4330    -2.7050    -0.7440 o          1 M7C      -0.573100
      9 N2          -2.4160    -1.8490     1.1080 ne         1 M7C      -0.737100
     10 C8          -1.2260    -1.3890     0.9150 c2         1 M7C       0.579800
     11 S1          -0.6670    -0.5570    -0.5560 ss         1 M7C      -0.113200
     12 N1          -0.2700    -1.3410     1.8830 ns         1 M7C      -0.412400
     13 C7           0.9540    -0.7940     1.6570 c          1 M7C       0.571000
     14 O7           1.7510    -0.5660     2.5560 o          1 M7C      -0.483000
     15 C1           1.0690    -0.4760     0.1220 c5         1 M7C       0.184000
     16 O5           1.5280     0.9000    -0.0920 os         1 M7C      -0.404000
     17 C5           2.9260     1.2320     0.1560 c6         1 M7C       0.131300
     18 C6           3.1480     2.7230    -0.2590 c3         1 M7C       0.171600
     19 O6           2.2470     3.6320     0.4010 oh         1 M7C      -0.701000
     20 C4           3.8860     0.2430    -0.5810 c6         1 M7C       0.111300
     21 O4           5.2700     0.4740    -0.2380 oh         1 M7C      -0.716000
     22 C3           3.5020    -1.2180    -0.2340 c6         1 M7C       0.131300
     23 O3           4.3640    -2.1350    -0.9330 oh         1 M7C      -0.668000
     24 C2           2.0190    -1.4740    -0.6150 c6         1 M7C       0.174300
     25 O2           1.6860    -2.8480    -0.3410 oh         1 M7C      -0.714000
     26 H15         -4.9680    -1.0310    -1.9900 ha         1 M7C       0.133000
     27 H14         -6.3500     1.0150    -2.1770 ha         1 M7C       0.115500
     28 H13         -6.3550     2.7020    -0.3430 ha         1 M7C       0.113000
     29 H12         -4.9680     2.3270     1.6920 ha         1 M7C       0.115500
     30 H11         -3.5870     0.2940     1.9090 ha         1 M7C       0.133000
     31 H1          -0.5120    -1.6220     2.8200 hn         1 M7C       0.359500
     32 H2           1.9180    -1.2850    -1.6950 h1         1 M7C       0.065700
     33 H5           3.1170     1.1630     1.2360 h1         1 M7C       0.091700
     34 H61C         4.1850     2.9980    -0.0260 h1         1 M7C       0.026200
     35 H62C         3.0250     2.7980    -1.3480 h1         1 M7C       0.026200
     36 H4           3.7450     0.3810    -1.6640 h1         1 M7C       0.052700
     37 H6           2.4140     4.5280     0.0250 ho         1 M7C       0.506000
     38 HA           5.6100     1.1970    -0.8170 ho         1 M7C       0.512000
     39 H3           3.6210    -1.3540     0.8520 h1         1 M7C       0.079700
     40 HB           5.2620    -1.7310    -0.8750 ho         1 M7C       0.467000
     41 HC           2.4840    -3.3590    -0.6280 ho         1 M7C       0.536000
@<TRIPOS>BOND
     1     1     2 ar  
     2     1     6 ar  
     3     1    26 1   
     4     2     3 ar  
     5     2    27 1   
     6     3     4 ar  
     7     3    28 1   
     8     4     5 ar  
     9     4    29 1   
    10     5     6 ar  
    11     5    30 1   
    12     6     7 1   
    13     7     8 2   
    14     7     9 1   
    15     9    10 2   
    16    10    11 1   
    17    10    12 1   
    18    11    15 1   
    19    12    13 1   
    20    12    31 1   
    21    13    14 2   
    22    13    15 1   
    23    15    16 1   
    24    15    24 1   
    25    16    17 1   
    26    17    18 1   
    27    17    20 1   
    28    17    33 1   
    29    18    19 1   
    30    18    34 1   
    31    18    35 1   
    32    19    37 1   
    33    20    21 1   
    34    20    22 1   
    35    20    36 1   
    36    21    38 1   
    37    22    23 1   
    38    22    24 1   
    39    22    39 1   
    40    23    40 1   
    41    24    25 1   
    42    24    32 1   
    43    25    41 1   
@<TRIPOS>SUBSTRUCTURE
     1 M7C         1 TEMP              0 ****  ****    0 ROOT
