@<TRIPOS>MOLECULE
M7C
   41    43     1     0     0
SMALL
abcg2


@<TRIPOS>ATOM
      1 C15         -5.4070     0.2380    -1.2900 ca         1 M7C      -0.052000
      2 C14         -6.7790     0.2290    -1.0970 ca         1 M7C      -0.132000
      3 C13         -7.3000     0.0990     0.1850 ca         1 M7C      -0.081000
      4 C12         -6.4460    -0.0200     1.2730 ca         1 M7C      -0.132000
      5 C11         -5.0730    -0.0090     1.0830 ca         1 M7C      -0.052000
      6 C10         -4.5430     0.1190    -0.2010 ca         1 M7C      -0.139600
      7 C9          -3.0800     0.1290    -0.4360 c          1 M7C       0.723100
      8 O8          -2.6100     0.2110    -1.5610 o          1 M7C      -0.573100
      9 N2          -2.3090     0.0380     0.7020 ne         1 M7C      -0.737100
     10 C8          -1.0350     0.0190     0.5690 c2         1 M7C       0.579800
     11 S1          -0.0950     0.0730    -0.8990 ss         1 M7C      -0.113200
     12 N1          -0.2380    -0.0430     1.6690 ns         1 M7C      -0.412400
     13 C7           1.1160    -0.0640     1.5020 c          1 M7C       0.571000
     14 O7           1.9090    -0.0590     2.4080 o          1 M7C      -0.483000
     15 C1           1.4910    -0.0570     0.0120 c5         1 M7C       0.184000
     16 O5           2.2240     1.0710    -0.3300 os         1 M7C      -0.404000
     17 C5           3.6110     1.1090     0.0180 c6         1 M7C       0.131300
     18 C6           4.1650     2.3750    -0.5970 c3         1 M7C       0.171600
     19 O6           3.5450     3.4830     0.0080 oh         1 M7C      -0.701000
     20 C4           4.3290    -0.1390    -0.5010 c6         1 M7C       0.111300
     21 O4           5.6650    -0.1730    -0.0570 oh         1 M7C      -0.716000
     22 C3           3.6380    -1.3880     0.0290 c6         1 M7C       0.131300
     23 O3           4.1850    -2.5630    -0.5160 oh         1 M7C      -0.668000
     24 C2           2.1720    -1.3710    -0.3800 c6         1 M7C       0.174300
     25 O2           1.4160    -2.3830     0.2200 oh         1 M7C      -0.714000
     26 H15         -5.0060     0.3400    -2.2900 ha         1 M7C       0.133000
     27 H14         -7.4430     0.3240    -1.9460 ha         1 M7C       0.115500
     28 H13         -8.3720     0.0920     0.3340 ha         1 M7C       0.113000
     29 H12         -6.8500    -0.1220     2.2720 ha         1 M7C       0.115500
     30 H11         -4.4100    -0.1020     1.9320 ha         1 M7C       0.133000
     31 H1          -0.6570    -0.0450     2.5920 hn         1 M7C       0.359500
     32 H2           2.1410    -1.4440    -1.4790 h1         1 M7C       0.065700
     33 H5           3.7330     1.1630     1.1070 h1         1 M7C       0.091700
     34 H61C         5.2500     2.3840    -0.4380 h1         1 M7C       0.026200
     35 H62C         3.9980     2.3500    -1.6830 h1         1 M7C       0.026200
     36 H4           4.2740    -0.1500    -1.5990 h1         1 M7C       0.052700
     37 H6           3.9040     4.2810    -0.3920 ho         1 M7C       0.506000
     38 HA           6.2320     0.2190    -0.7260 ho         1 M7C       0.512000
     39 H3           3.7170    -1.3960     1.1250 h1         1 M7C       0.079700
     40 HB           5.0870    -2.6570    -0.1930 ho         1 M7C       0.467000
     41 HC           1.7640    -3.2390    -0.0520 ho         1 M7C       0.536000
@<TRIPOS>BOND
     1     1     2 ar  
     2     1     6 ar  
     3     1    26 1   
     4     2     3 ar  
     5     2    27 1   
     6     3     4 ar  
     7     3    28 1   
     8     4     5 ar  
     9     4    29 1   
    10     5     6 ar  
    11     5    30 1   
    12     6     7 1   
    13     7     8 2   
    14     7     9 1   
    15     9    10 2   
    16    10    11 1   
    17    10    12 1   
    18    11    15 1   
    19    12    13 1   
    20    12    31 1   
    21    13    14 2   
    22    13    15 1   
    23    15    16 1   
    24    15    24 1   
    25    16    17 1   
    26    17    18 1   
    27    17    20 1   
    28    17    33 1   
    29    18    19 1   
    30    18    34 1   
    31    18    35 1   
    32    19    37 1   
    33    20    21 1   
    34    20    22 1   
    35    20    36 1   
    36    21    38 1   
    37    22    23 1   
    38    22    24 1   
    39    22    39 1   
    40    23    40 1   
    41    24    25 1   
    42    24    32 1   
    43    25    41 1   
@<TRIPOS>SUBSTRUCTURE
     1 M7C         1 TEMP              0 ****  ****    0 ROOT
