@<TRIPOS>MOLECULE
M7H
   51    54     1     0     0
SMALL
abcg2


@<TRIPOS>ATOM
      1 C4          22.7970     1.9200   -34.8520 cc         1 M7H      -0.340800
      2 C5          22.9330     1.4970   -33.5040 ca         1 M7H       0.319800
      3 N1          23.8770    -0.0600   -34.8290 na         1 M7H      -0.184400
      4 C9          24.2440     3.2190   -40.3940 c          1 M7H       0.608100
      5 C10         22.8260     1.3350   -31.2540 cp         1 M7H       0.346500
      6 C11         23.5290     0.8950   -37.1100 c6         1 M7H      -0.007500
      7 C12         23.5280     0.1160   -31.3190 ca         1 M7H       0.310900
      8 C13         22.3950     1.8980   -29.9610 cp         1 M7H      -0.180500
      9 C14         25.0430     1.3240   -39.0750 c6         1 M7H       0.096500
     10 C15         22.6530     1.6240   -39.3410 c6         1 M7H       0.096500
     11 C2          23.3780     0.9480   -35.6270 cd         1 M7H      -0.036300
     12 C3          23.6150     0.2560   -33.5320 ca         1 M7H       0.319500
     13 N6          22.5390     2.0270   -32.3540 nb         1 M7H      -0.605000
     14 N7          23.9230    -0.4360   -32.4580 nb         1 M7H      -0.648000
     15 N8          23.9790     2.0850   -39.7060 n          1 M7H      -0.413800
     16 O16         25.3890     3.6100   -40.5890 o          1 M7H      -0.603100
     17 C17         22.4500     1.7020   -37.8330 c6         1 M7H      -0.094900
     18 C18         24.9180     1.3800   -37.5570 c6         1 M7H      -0.094900
     19 C19         22.1700     1.0890   -28.8420 ca         1 M7H      -0.047500
     20 C20         22.1820     3.2670   -29.8210 ca         1 M7H      -0.047500
     21 C21         24.5200    -1.2750   -35.2730 c3         1 M7H       0.060900
     22 C22         21.5580     3.0030   -27.5110 ca         1 M7H       0.150100
     23 C23         21.7610     1.6270   -27.6370 ca         1 M7H      -0.179500
     24 C24         21.7730     3.8230   -28.6170 ca         1 M7H      -0.179500
     25 O25         21.1570     3.4390   -26.3050 os         1 M7H      -0.340100
     26 C26         23.0640     3.9950   -40.9320 c3         1 M7H      -0.177100
     27 C27         20.9070     4.8200   -26.1330 c3         1 M7H       0.148900
     28 H1          22.3300     2.8240   -35.2080 ha         1 M7H       0.218000
     29 H2          23.4230    -0.1500   -37.4290 hc         1 M7H       0.054700
     30 H3          23.7890    -0.4170   -30.4130 h4         1 M7H       0.029100
     31 H4          24.9750     0.2840   -39.4110 h1         1 M7H       0.056700
     32 H5          26.0060     1.7100   -39.3960 h1         1 M7H       0.056700
     33 H6          21.8880     2.1990   -39.8550 h1         1 M7H       0.056700
     34 H7          22.5410     0.5870   -39.6730 h1         1 M7H       0.056700
     35 H8          22.4860     2.7500   -37.5230 hc         1 M7H       0.057450
     36 H9          21.4590     1.3200   -37.5810 hc         1 M7H       0.057450
     37 H10         25.7080     0.7700   -37.1140 hc         1 M7H       0.057450
     38 H11         25.0740     2.4050   -37.2110 hc         1 M7H       0.057450
     39 H12         22.2920     0.0160   -28.9070 ha         1 M7H       0.122000
     40 H13         22.3430     3.9210   -30.6670 ha         1 M7H       0.122000
     41 H14         24.7450    -1.8840   -34.4020 h1         1 M7H       0.056367
     42 H15         23.8670    -1.8430   -35.9340 h1         1 M7H       0.056367
     43 H16         25.4530    -1.0630   -35.7930 h1         1 M7H       0.056367
     44 H17         21.5840     0.9800   -26.7870 ha         1 M7H       0.123000
     45 H18         21.6300     4.8940   -28.5610 ha         1 M7H       0.123000
     46 H19         23.4300     4.8440   -41.5030 hc         1 M7H       0.060700
     47 H20         22.4350     3.3870   -41.5830 hc         1 M7H       0.060700
     48 H21         22.4310     4.3730   -40.1270 hc         1 M7H       0.060700
     49 H22         20.5890     4.9500   -25.1010 h1         1 M7H       0.041700
     50 H23         21.8020     5.4230   -26.3030 h1         1 M7H       0.041700
     51 H24         20.1120     5.1770   -26.7930 h1         1 M7H       0.041700
@<TRIPOS>BOND
     1     1     2 1   
     2     1    11 2   
     3     1    28 1   
     4     2    12 ar  
     5     2    13 ar  
     6     3    11 1   
     7     3    12 1   
     8     3    21 1   
     9     4    15 1   
    10     4    16 2   
    11     4    26 1   
    12     5     7 ar  
    13     5     8 1   
    14     5    13 ar  
    15     6    11 1   
    16     6    17 1   
    17     6    18 1   
    18     6    29 1   
    19     7    14 ar  
    20     7    30 1   
    21     8    19 ar  
    22     8    20 ar  
    23     9    15 1   
    24     9    18 1   
    25     9    31 1   
    26     9    32 1   
    27    10    15 1   
    28    10    17 1   
    29    10    33 1   
    30    10    34 1   
    31    12    14 ar  
    32    17    35 1   
    33    17    36 1   
    34    18    37 1   
    35    18    38 1   
    36    19    23 ar  
    37    19    39 1   
    38    20    24 ar  
    39    20    40 1   
    40    21    41 1   
    41    21    42 1   
    42    21    43 1   
    43    22    23 ar  
    44    22    24 ar  
    45    22    25 1   
    46    23    44 1   
    47    24    45 1   
    48    25    27 1   
    49    26    46 1   
    50    26    47 1   
    51    26    48 1   
    52    27    49 1   
    53    27    50 1   
    54    27    51 1   
@<TRIPOS>SUBSTRUCTURE
     1 M7H         1 TEMP              0 ****  ****    0 ROOT
