@<TRIPOS>MOLECULE
M7H
   51    54     1     0     0
SMALL
No Charge or Current Charge


@<TRIPOS>ATOM
      1 C4          23.2730     1.7350   -34.8210 cc         1 M7H      -0.340800
      2 C5          23.1480     1.1930   -33.5100 ca         1 M7H       0.319800
      3 N1          23.8030    -0.4760   -34.8760 na         1 M7H      -0.184400
      4 C9          23.8460     3.7110   -40.1730 c          1 M7H       0.608100
      5 C10         22.7320     1.1220   -31.2650 cp         1 M7H       0.346500
      6 C11         23.9340     0.8290   -37.1450 c6         1 M7H      -0.007500
      7 C12         23.0760    -0.2820   -31.3040 ca         1 M7H       0.310900
      8 C13         22.3230     1.8340   -29.9980 cp         1 M7H      -0.180500
      9 C14         25.2920     2.0160   -38.9530 c6         1 M7H       0.096500
     10 C15         22.9240     1.4390   -39.4090 c6         1 M7H       0.096500
     11 C2          23.6770     0.7010   -35.6550 cd         1 M7H      -0.036300
     12 C3          23.4760    -0.1590   -33.5590 ca         1 M7H       0.319500
     13 N6          22.7770     1.8720   -32.4030 nb         1 M7H      -0.605000
     14 N7          23.4490    -0.9380   -32.4460 nb         1 M7H      -0.648000
     15 N8          24.0240     2.4210   -39.6170 n          1 M7H      -0.413800
     16 O16         24.7530     4.5340   -40.1620 o          1 M7H      -0.603100
     17 C17         22.6440     1.2480   -37.9000 c6         1 M7H      -0.094900
     18 C18         25.0780     1.8380   -37.4310 c6         1 M7H      -0.094900
     19 C19         21.8860     1.1160   -28.8520 ca         1 M7H      -0.047500
     20 C20         22.3550     3.2530   -29.9030 ca         1 M7H      -0.047500
     21 C21         24.2040    -1.8230   -35.3170 c3         1 M7H       0.060900
     22 C22         21.5510     3.1820   -27.6010 ca         1 M7H       0.150100
     23 C23         21.5080     1.7830   -27.6750 ca         1 M7H      -0.179500
     24 C24         21.9770     3.9190   -28.7240 ca         1 M7H      -0.179500
     25 O25         21.1680     3.7790   -26.4180 os         1 M7H      -0.340100
     26 C26         22.5100     4.0670   -40.8290 c3         1 M7H      -0.177100
     27 C27         21.1760     5.2070   -26.2420 c3         1 M7H       0.148900
     28 H1          23.0880     2.7630   -35.1150 ha         1 M7H       0.218000
     29 H2          24.2470    -0.1470   -37.5410 hc         1 M7H       0.054700
     30 H3          23.0640    -0.8870   -30.4010 h4         1 M7H       0.029100
     31 H4          25.6350     1.0660   -39.3880 h1         1 M7H       0.056700
     32 H5          26.0860     2.7550   -39.1280 h1         1 M7H       0.056700
     33 H6          21.9980     1.7400   -39.9150 h1         1 M7H       0.056700
     34 H7          23.2230     0.4750   -39.8470 h1         1 M7H       0.056700
     35 H8          22.2480     2.1840   -37.4850 hc         1 M7H       0.057450
     36 H9          21.8640     0.4870   -37.7600 hc         1 M7H       0.057450
     37 H10         26.0100     1.4920   -36.9620 hc         1 M7H       0.057450
     38 H11         24.8440     2.8140   -36.9840 hc         1 M7H       0.057450
     39 H12         21.8210     0.0300   -28.8680 ha         1 M7H       0.122000
     40 H13         22.6850     3.8520   -30.7500 ha         1 M7H       0.122000
     41 H14         24.1790    -2.5280   -34.4780 h1         1 M7H       0.056367
     42 H15         23.5160    -2.1720   -36.0980 h1         1 M7H       0.056367
     43 H16         25.2220    -1.7860   -35.7240 h1         1 M7H       0.056367
     44 H17         21.1750     1.2110   -26.8130 ha         1 M7H       0.123000
     45 H18         22.0230     5.0040   -28.7030 ha         1 M7H       0.123000
     46 H19         22.5180     5.0640   -41.2820 hc         1 M7H       0.060700
     47 H20         22.2480     3.2950   -41.5610 hc         1 M7H       0.060700
     48 H21         21.7120     3.9810   -40.0830 hc         1 M7H       0.060700
     49 H22         20.8360     5.4670   -25.2310 h1         1 M7H       0.041700
     50 H23         22.1880     5.6110   -26.3740 h1         1 M7H       0.041700
     51 H24         20.5050     5.6930   -26.9610 h1         1 M7H       0.041700
@<TRIPOS>BOND
     1     1     2 1   
     2     1    11 2   
     3     1    28 1   
     4     2    12 ar  
     5     2    13 ar  
     6     3    11 1   
     7     3    12 1   
     8     3    21 1   
     9     4    15 1   
    10     4    16 2   
    11     4    26 1   
    12     5     7 ar  
    13     5     8 1   
    14     5    13 ar  
    15     6    11 1   
    16     6    17 1   
    17     6    18 1   
    18     6    29 1   
    19     7    14 ar  
    20     7    30 1   
    21     8    19 ar  
    22     8    20 ar  
    23     9    15 1   
    24     9    18 1   
    25     9    31 1   
    26     9    32 1   
    27    10    15 1   
    28    10    17 1   
    29    10    33 1   
    30    10    34 1   
    31    12    14 ar  
    32    17    35 1   
    33    17    36 1   
    34    18    37 1   
    35    18    38 1   
    36    19    23 ar  
    37    19    39 1   
    38    20    24 ar  
    39    20    40 1   
    40    21    41 1   
    41    21    42 1   
    42    21    43 1   
    43    22    23 ar  
    44    22    24 ar  
    45    22    25 1   
    46    23    44 1   
    47    24    45 1   
    48    25    27 1   
    49    26    46 1   
    50    26    47 1   
    51    26    48 1   
    52    27    49 1   
    53    27    50 1   
    54    27    51 1   
@<TRIPOS>SUBSTRUCTURE
     1 M7H         1 TEMP              0 ****  ****    0 ROOT
