@<TRIPOS>MOLECULE
M7I
   31    32     1     0     0
SMALL
No Charge or Current Charge


@<TRIPOS>ATOM
      1 N1         -16.2810     6.8410   -35.9360 ns         1 M7I      -0.396100
      2 C4         -14.4820     5.4620   -38.2260 c3         1 M7I      -0.035100
      3 C5         -15.2190     5.6900   -39.5400 ca         1 M7I      -0.052300
      4 C6         -14.5340     6.1920   -40.6600 ca         1 M7I      -0.113500
      5 C7         -15.2150     6.4220   -41.8680 ca         1 M7I      -0.056500
      6 C8         -16.5960     6.1480   -41.9750 ca         1 M7I      -0.197300
      7 C10        -16.5970     5.4250   -39.6390 ca         1 M7I      -0.113500
      8 C13        -18.2010     8.4440   -36.2260 c          1 M7I       0.481000
      9 O1         -17.9970     6.7050   -34.4430 o          1 M7I      -0.498000
     10 C1         -17.5040     7.2430   -35.4290 c          1 M7I       0.482000
     11 C2         -15.6520     7.3920   -37.0460 cc         1 M7I      -0.036600
     12 C3         -14.3300     6.7600   -37.4040 c3         1 M7I      -0.024200
     13 C9         -17.2820     5.6540   -40.8450 ca         1 M7I      -0.056500
     14 C11        -17.3440     6.4110   -43.2880 c3         1 M7I       0.357300
     15 F1         -18.3910     5.5720   -43.4600 f          1 M7I      -0.113000
     16 F2         -17.8350     7.6700   -43.3290 f          1 M7I      -0.113000
     17 F3         -16.5490     6.2610   -44.3720 f          1 M7I      -0.113000
     18 C12        -16.2520     8.4280   -37.7350 cd         1 M7I      -0.126400
     19 N2         -17.4840     8.9150   -37.3130 ns         1 M7I      -0.389100
     20 O2         -19.2870     8.9250   -35.9150 o          1 M7I      -0.495000
     21 H42        -15.0050     4.7110   -37.6200 hc         1 M7I       0.056200
     22 H41        -13.4850     5.0490   -38.4240 hc         1 M7I       0.056200
     23 H6         -13.4710     6.4110   -40.5950 ha         1 M7I       0.120000
     24 H7         -14.6630     6.8180   -42.7190 ha         1 M7I       0.132000
     25 H10        -17.1430     5.0500   -38.7770 ha         1 M7I       0.120000
     26 H32        -13.7570     6.5420   -36.4940 hc         1 M7I       0.060700
     27 H31        -13.7250     7.4730   -37.9770 hc         1 M7I       0.060700
     28 H9         -18.3500     5.4500   -40.8930 ha         1 M7I       0.132000
     29 H12        -15.8320     8.9070   -38.6180 h4         1 M7I       0.215000
     30 HN2        -17.9320     9.6750   -37.8160 hn         1 M7I       0.332500
     31 H2         -15.8350     6.0810   -35.4350 hn         1 M7I       0.325500
@<TRIPOS>BOND
     1     1    10 1   
     2     1    11 1   
     3     1    31 1   
     4     2     3 1   
     5     2    12 1   
     6     2    21 1   
     7     2    22 1   
     8     3     4 ar  
     9     3     7 ar  
    10     4     5 ar  
    11     4    23 1   
    12     5     6 ar  
    13     5    24 1   
    14     6    13 ar  
    15     6    14 1   
    16     7    13 ar  
    17     7    25 1   
    18     8    10 1   
    19     8    19 1   
    20     8    20 2   
    21     9    10 2   
    22    11    12 1   
    23    11    18 2   
    24    12    26 1   
    25    12    27 1   
    26    13    28 1   
    27    14    15 1   
    28    14    16 1   
    29    14    17 1   
    30    18    19 1   
    31    18    29 1   
    32    19    30 1   
@<TRIPOS>SUBSTRUCTURE
     1 M7I         1 TEMP              0 ****  ****    0 ROOT
