@<TRIPOS>MOLECULE
M7I
   31    32     1     0     0
SMALL
abcg2


@<TRIPOS>ATOM
      1 N1         -16.4360     6.7320   -36.2420 ns         1 M7I      -0.396100
      2 C4         -14.4230     5.5100   -38.2280 c3         1 M7I      -0.035100
      3 C5         -15.2080     5.6960   -39.4930 ca         1 M7I      -0.052300
      4 C6         -14.6300     6.3200   -40.5980 ca         1 M7I      -0.113500
      5 C7         -15.3520     6.5220   -41.7590 ca         1 M7I      -0.056500
      6 C8         -16.6770     6.0990   -41.8360 ca         1 M7I      -0.197300
      7 C10        -16.5330     5.2870   -39.5820 ca         1 M7I      -0.113500
      8 C13        -18.1520     8.4490   -36.4110 c          1 M7I       0.481000
      9 O1         -18.3860     6.4650   -35.1220 o          1 M7I      -0.498000
     10 C1         -17.6760     7.1170   -35.8610 c          1 M7I       0.482000
     11 C2         -15.5940     7.4400   -37.0890 cc         1 M7I      -0.036600
     12 C3         -14.2830     6.8200   -37.4350 c3         1 M7I      -0.024200
     13 C9         -17.2680     5.4840   -40.7430 ca         1 M7I      -0.056500
     14 C11        -17.4270     6.3170   -43.1100 c3         1 M7I       0.357300
     15 F1         -18.6640     5.8150   -43.0780 f          1 M7I      -0.113000
     16 F2         -17.5440     7.6220   -43.4020 f          1 M7I      -0.113000
     17 F3         -16.8020     5.7510   -44.1540 f          1 M7I      -0.113000
     18 C12        -16.0270     8.6090   -37.5690 cd         1 M7I      -0.126400
     19 N2         -17.2780     9.0870   -37.2190 ns         1 M7I      -0.389100
     20 O2         -19.2510     8.8800   -36.1190 o          1 M7I      -0.495000
     21 H42        -14.8920     4.7430   -37.6090 hc         1 M7I       0.056200
     22 H41        -13.4190     5.1480   -38.4580 hc         1 M7I       0.056200
     23 H6         -13.5980     6.6470   -40.5510 ha         1 M7I       0.120000
     24 H7         -14.8740     7.0040   -42.6030 ha         1 M7I       0.132000
     25 H10        -17.0020     4.8010   -38.7350 ha         1 M7I       0.120000
     26 H32        -13.7120     6.6200   -36.5240 hc         1 M7I       0.060700
     27 H31        -13.7060     7.5410   -38.0160 hc         1 M7I       0.060700
     28 H9         -18.2950     5.1480   -40.7770 ha         1 M7I       0.132000
     29 H12        -15.4460     9.2190   -38.2410 h4         1 M7I       0.215000
     30 HN2        -17.5690     9.9810   -37.5920 hn         1 M7I       0.332500
     31 H2         -16.1080     5.8530   -35.8610 hn         1 M7I       0.325500
@<TRIPOS>BOND
     1     1    10 1   
     2     1    11 1   
     3     1    31 1   
     4     2     3 1   
     5     2    12 1   
     6     2    21 1   
     7     2    22 1   
     8     3     4 ar  
     9     3     7 ar  
    10     4     5 ar  
    11     4    23 1   
    12     5     6 ar  
    13     5    24 1   
    14     6    13 ar  
    15     6    14 1   
    16     7    13 ar  
    17     7    25 1   
    18     8    10 1   
    19     8    19 1   
    20     8    20 2   
    21     9    10 2   
    22    11    12 1   
    23    11    18 2   
    24    12    26 1   
    25    12    27 1   
    26    13    28 1   
    27    14    15 1   
    28    14    16 1   
    29    14    17 1   
    30    18    19 1   
    31    18    29 1   
    32    19    30 1   
@<TRIPOS>SUBSTRUCTURE
     1 M7I         1 TEMP              0 ****  ****    0 ROOT
