@<TRIPOS>MOLECULE
M7J
   50    51     1     0     0
SMALL
bcc


@<TRIPOS>ATOM
      1 C4           4.1160    -1.6250    -0.0250 c6         1 M7J       0.107100
      2 C5           3.6730    -0.7690     1.1650 c6         1 M7J      -0.009900
      3 C6           4.1950    -1.2910     2.5230 c          1 M7J       0.946600
      4 C3           3.4600    -1.0880    -1.2980 c6         1 M7J       0.122100
      5 CAS         -0.2090     0.7360     1.2940 c6         1 M7J       0.116100
      6 CAT         -1.4720     0.0950     1.8700 c6         1 M7J       0.183100
      7 CAU         -2.5550    -0.0030     0.7850 c6         1 M7J       0.139500
      8 CAW         -0.6040     2.0890     0.7100 c6         1 M7J       0.385900
      9 CAY         -2.7850     1.4020     0.2220 c6         1 M7J       0.358900
     10 NAM         -3.8060    -0.4900     1.3730 n7         1 M7J      -0.832100
     11 OAA          4.1980    -2.5420     2.6670 o          1 M7J      -0.842300
     12 OAB         -3.0640    -2.8440     1.6770 o          1 M7J      -0.714200
     13 OAF         -5.4630    -2.2780     1.8380 o          1 M7J      -0.714200
     14 OAH         -4.3450    -2.3390    -0.3490 o          1 M7J      -0.714200
     15 OAL         -1.1430    -1.1210     2.4700 oh         1 M7J      -0.623800
     16 OAX         -1.5840     1.9350    -0.2740 os         1 M7J      -0.424600
     17 OAZ         -3.6960     1.3400    -0.8090 oh         1 M7J      -0.560800
     18 SAG         -4.2110    -2.1050     1.0930 s6         1 M7J       1.355700
     19 OBA         -0.8050    -1.6490    -2.1340 o          1 M7J      -0.720200
     20 OBC          0.9050    -2.3180    -3.7430 o          1 M7J      -0.720200
     21 OBD          0.4930     2.6970     0.1080 os         1 M7J      -0.516500
     22 OBE         -0.2220    -0.1510    -4.0090 o          1 M7J      -0.720200
     23 OBF          0.8260     4.5480     1.7250 o          1 M7J      -0.727200
     24 OBH          1.8930     4.5440    -0.4960 o          1 M7J      -0.727200
     25 OBI         -0.5300     4.9370    -0.2820 o          1 M7J      -0.727200
     26 SBB          0.2070    -1.2060    -3.0910 s6         1 M7J       1.508300
     27 SBG          0.6770     4.3390     0.2830 s6         1 M7J       1.508300
     28 C1           1.6580    -0.1790     0.1290 c6         1 M7J       0.329900
     29 O1           0.2990    -0.1390     0.3170 os         1 M7J      -0.331600
     30 C2           1.9490    -1.0240    -1.1140 c6         1 M7J       0.200100
     31 O2           1.3570    -0.3960    -2.2370 os         1 M7J      -0.555500
     32 O3           3.7510    -1.8700    -2.4250 oh         1 M7J      -0.549800
     33 O4           3.7720    -2.9730     0.1480 oh         1 M7J      -0.640800
     34 O5           2.2590    -0.7710     1.2550 os         1 M7J      -0.408600
     35 O6           4.5460    -0.4550     3.3620 o          1 M7J      -0.842300
     36 H1           5.2090    -1.4980    -0.1280 h1         1 M7J      -0.027300
     37 H2           4.0400     0.2560     1.0110 h1         1 M7J       0.022700
     38 H5           3.8220    -0.0560    -1.4370 h1         1 M7J       0.019700
     39 H6           0.5100     0.9040     2.1070 h1         1 M7J       0.067700
     40 H7          -1.8640     0.7910     2.6310 h1         1 M7J      -0.006300
     41 H8          -2.2110    -0.6400    -0.0410 h1         1 M7J       0.155700
     42 H9          -0.9930     2.7000     1.5440 h2         1 M7J      -0.001300
     43 H10         -3.1540     2.0500     1.0390 h2         1 M7J      -0.025300
     44 HAM         -4.5990     0.0880     1.1100 hn         1 M7J       0.363800
     45 HAL         -1.8060    -1.7970     2.2300 ho         1 M7J       0.469000
     46 HAZ         -4.1030     2.2040    -0.9270 ho         1 M7J       0.379000
     47 H12          2.0870     0.8280    -0.0130 h2         1 M7J       0.042700
     48 H13          1.5530    -2.0330    -0.9530 h1         1 M7J       0.090700
     49 H3           4.7010    -1.8290    -2.5750 ho         1 M7J       0.350000
     50 H4           3.8830    -3.1140     1.1180 ho         1 M7J       0.461000
@<TRIPOS>BOND
     1     1     2 1   
     2     1     4 1   
     3     1    33 1   
     4     1    36 1   
     5     2     3 1   
     6     2    34 1   
     7     2    37 1   
     8     3    11 1   
     9     3    35 1   
    10     4    30 1   
    11     4    32 1   
    12     4    38 1   
    13     5     6 1   
    14     5     8 1   
    15     5    29 1   
    16     5    39 1   
    17     6     7 1   
    18     6    15 1   
    19     6    40 1   
    20     7     9 1   
    21     7    10 1   
    22     7    41 1   
    23     8    16 1   
    24     8    21 1   
    25     8    42 1   
    26     9    16 1   
    27     9    17 1   
    28     9    43 1   
    29    10    18 1   
    30    10    44 1   
    31    12    18 1   
    32    13    18 1   
    33    14    18 1   
    34    15    45 1   
    35    17    46 1   
    36    19    26 1   
    37    20    26 1   
    38    21    27 1   
    39    22    26 1   
    40    23    27 1   
    41    24    27 1   
    42    25    27 1   
    43    26    31 1   
    44    28    29 1   
    45    28    30 1   
    46    28    34 1   
    47    28    47 1   
    48    30    31 1   
    49    30    48 1   
    50    32    49 1   
    51    33    50 1   
@<TRIPOS>SUBSTRUCTURE
     1 M7J         1 TEMP              0 ****  ****    0 ROOT
