@<TRIPOS>MOLECULE
M7J
   50    51     1     0     0
SMALL
No Charge or Current Charge


@<TRIPOS>ATOM
      1 C4           4.3450    -1.4050    -0.1780 c6         1 M7J       0.130300
      2 C5           3.8680    -0.5320     1.0070 c6         1 M7J       0.013300
      3 C6           4.7220    -0.8240     2.2930 c          1 M7J       0.736000
      4 C3           3.5710    -0.9650    -1.4590 c6         1 M7J       0.145300
      5 CAS         -0.2550     0.4370     1.4560 c6         1 M7J       0.139300
      6 CAT         -1.6090    -0.1380     1.9860 c6         1 M7J       0.206300
      7 CAU         -2.7370     0.0110     0.8980 c6         1 M7J       0.139500
      8 CAW         -0.5170     1.9280     1.0480 c6         1 M7J       0.432300
      9 CAY         -2.7840     1.5180     0.4630 c6         1 M7J       0.405300
     10 NAM         -4.0890    -0.4530     1.3710 n7         1 M7J      -0.887300
     11 OAA          4.2020    -1.5290     3.1500 o          1 M7J      -0.737000
     12 OAB         -3.4240    -2.7700     1.4090 o          1 M7J      -0.714200
     13 OAF         -5.7540    -2.1070     1.9180 o          1 M7J      -0.714200
     14 OAH         -4.8770    -1.8700    -0.3930 o          1 M7J      -0.714200
     15 OAL         -1.4660    -1.4990     2.4340 oh         1 M7J      -0.746000
     16 OAX         -1.5090     1.9620     0.0080 os         1 M7J      -0.471000
     17 OAZ         -3.6660     1.7200    -0.6250 oh         1 M7J      -0.623000
     18 SAG         -4.5960    -1.9790     1.0350 s6         1 M7J       1.355700
     19 OBA         -0.8680    -1.6260    -2.2970 o          1 M7J      -0.720200
     20 OBC          0.9990    -2.7700    -3.4260 o          1 M7J      -0.720200
     21 OBD          0.6680     2.6000     0.6270 os         1 M7J      -0.539700
     22 OBE         -0.0250    -0.7700    -4.4530 o          1 M7J      -0.720200
     23 OBF         -0.1000     4.6650     1.7340 o          1 M7J      -0.727200
     24 OBH          2.0670     4.6010     0.5590 o          1 M7J      -0.727200
     25 OBI         -0.0300     4.5320    -0.7300 o          1 M7J      -0.727200
     26 SBB          0.2700    -1.5110    -3.2170 s6         1 M7J       1.508300
     27 SBG          0.6440     4.2340     0.5420 s6         1 M7J       1.508300
     28 C1           1.6540    -0.2530     0.0410 c6         1 M7J       0.376300
     29 O1           0.2590    -0.4060     0.3790 os         1 M7J      -0.378000
     30 C2           2.0140    -1.0700    -1.2530 c6         1 M7J       0.223300
     31 O2           1.3320    -0.5410    -2.4240 os         1 M7J      -0.578700
     32 O3           4.0290    -1.7410    -2.5820 oh         1 M7J      -0.612000
     33 O4           4.1070    -2.7990     0.0910 oh         1 M7J      -0.763000
     34 O5           2.4340    -0.7300     1.1670 os         1 M7J      -0.455000
     35 O6           5.4890     0.0690     2.6340 o          1 M7J      -0.737000
     36 H1           5.4200    -1.2370    -0.3330 h1         1 M7J      -0.027300
     37 H2           4.0380     0.5250     0.7540 h1         1 M7J       0.022700
     38 H5           3.8090     0.0940    -1.6430 h1         1 M7J       0.019700
     39 H6           0.4600     0.4270     2.2900 h1         1 M7J       0.067700
     40 H7          -1.9070     0.4750     2.8500 h1         1 M7J      -0.006300
     41 H8          -2.4310    -0.5520    -0.0010 h1         1 M7J       0.155700
     42 H9          -0.9190     2.4330     1.9380 h2         1 M7J      -0.001300
     43 H10         -3.1020     2.1470     1.3070 h2         1 M7J      -0.025300
     44 HAM         -4.7680    -0.0080     0.7590 hn         1 M7J       0.419000
     45 HAL         -2.2650    -1.9860     2.0500 ho         1 M7J       0.568000
     46 HAZ         -3.1970     2.3740    -1.1810 ho         1 M7J       0.418000
     47 H12          1.8890     0.8020    -0.1470 h2         1 M7J       0.042700
     48 H13          1.7380    -2.1210    -1.0820 h1         1 M7J       0.090700
     49 H3           4.1450    -2.6480    -2.2250 ho         1 M7J       0.389000
     50 H4           3.5380    -2.8220     0.9000 ho         1 M7J       0.560000
@<TRIPOS>BOND
     1     1     2 1   
     2     1     4 1   
     3     1    33 1   
     4     1    36 1   
     5     2     3 1   
     6     2    34 1   
     7     2    37 1   
     8     3    11 1   
     9     3    35 1   
    10     4    30 1   
    11     4    32 1   
    12     4    38 1   
    13     5     6 1   
    14     5     8 1   
    15     5    29 1   
    16     5    39 1   
    17     6     7 1   
    18     6    15 1   
    19     6    40 1   
    20     7     9 1   
    21     7    10 1   
    22     7    41 1   
    23     8    16 1   
    24     8    21 1   
    25     8    42 1   
    26     9    16 1   
    27     9    17 1   
    28     9    43 1   
    29    10    18 1   
    30    10    44 1   
    31    12    18 1   
    32    13    18 1   
    33    14    18 1   
    34    15    45 1   
    35    17    46 1   
    36    19    26 1   
    37    20    26 1   
    38    21    27 1   
    39    22    26 1   
    40    23    27 1   
    41    24    27 1   
    42    25    27 1   
    43    26    31 1   
    44    28    29 1   
    45    28    30 1   
    46    28    34 1   
    47    28    47 1   
    48    30    31 1   
    49    30    48 1   
    50    32    49 1   
    51    33    50 1   
@<TRIPOS>SUBSTRUCTURE
     1 M7J         1 TEMP              0 ****  ****    0 ROOT
