@<TRIPOS>MOLECULE
M7K
   40    42     1     0     0
SMALL
No Charge or Current Charge


@<TRIPOS>ATOM
      1 N01         -4.6720    -1.4340    -0.2620 nb         1 M7K      -0.760000
      2 C02         -5.9580    -1.3300     0.0450 ca         1 M7K       0.614900
      3 N02         -6.5530    -2.5230     0.0140 nv         1 M7K      -1.065900
      4 C03         -6.6140    -0.1430     0.3740 ca         1 M7K      -0.210000
      5 C04         -5.8690     1.0440     0.3790 ca         1 M7K      -0.028000
      6 C05         -4.5020     0.9650     0.0540 ca         1 M7K      -0.130000
      7 C06         -3.7100     2.1270     0.0450 ca         1 M7K      -0.072000
      8 C07         -2.3470     2.0460    -0.2790 ca         1 M7K      -0.126000
      9 C08         -1.7670     0.8050    -0.5970 ca         1 M7K      -0.059300
     10 C09         -2.5650    -0.3560    -0.5850 ca         1 M7K      -0.101000
     11 C10         -3.9340    -0.2980    -0.2630 ca         1 M7K       0.327000
     12 C11         -0.2860     0.7170    -0.9430 c3         1 M7K      -0.036100
     13 C12          0.5910     0.5410     0.3130 c3         1 M7K       0.159800
     14 N13          2.0180     0.4650    -0.0560 n7         1 M7K      -0.865400
     15 C14          2.9500     0.3220     1.0770 c3         1 M7K       0.204100
     16 C21          4.3860     0.2150     0.5780 ca         1 M7K      -0.062300
     17 C22          4.9850    -1.0470     0.3930 ca         1 M7K      -0.152000
     18 C23          6.3090    -1.1370    -0.0650 ca         1 M7K       0.167000
     19 C24          7.0470     0.0240    -0.3420 ca         1 M7K      -0.150000
     20 C25          6.4560     1.2860    -0.1610 ca         1 M7K      -0.090000
     21 C26          5.1290     1.3800     0.2970 ca         1 M7K      -0.104000
     22 F27          6.8770    -2.3510    -0.2400 f          1 M7K      -0.182000
     23 HN02        -5.9120    -3.3070    -0.0010 hn         1 M7K       0.476000
     24 HN0A        -7.3970    -2.6400     0.5640 hn         1 M7K       0.476000
     25 H03         -7.6720    -0.1400     0.6170 ha         1 M7K       0.120000
     26 H04         -6.3370     1.9940     0.6280 ha         1 M7K       0.116000
     27 H06         -4.1470     3.0930     0.2890 ha         1 M7K       0.112000
     28 H07         -1.7400     2.9490    -0.2810 ha         1 M7K       0.115000
     29 H09         -2.1220    -1.3180    -0.8260 ha         1 M7K       0.127000
     30 H11         -0.1080    -0.1210    -1.6280 hc         1 M7K       0.055700
     31 H11A         0.0290     1.6220    -1.4760 hc         1 M7K       0.055700
     32 H12          0.4160     1.3900     0.9880 h1         1 M7K       0.035200
     33 H12A         0.2810    -0.3730     0.8390 h1         1 M7K       0.035200
     34 HN13         2.1500    -0.3460    -0.6720 hn         1 M7K       0.412000
     35 H14          2.8680     1.1850     1.7530 h1         1 M7K       0.039700
     36 H14A         2.7060    -0.5750     1.6640 h1         1 M7K       0.039700
     37 H22          4.4280    -1.9560     0.6020 ha         1 M7K       0.128000
     38 H24          8.0720    -0.0560    -0.6970 ha         1 M7K       0.131000
     39 H25          7.0220     2.1900    -0.3760 ha         1 M7K       0.117000
     40 H26          4.6740     2.3590     0.4320 ha         1 M7K       0.133000
@<TRIPOS>BOND
     1     1     2 ar  
     2     1    11 ar  
     3     2     3 1   
     4     2     4 ar  
     5     3    23 1   
     6     3    24 1   
     7     4     5 ar  
     8     4    25 1   
     9     5     6 ar  
    10     5    26 1   
    11     6     7 ar  
    12     6    11 ar  
    13     7     8 ar  
    14     7    27 1   
    15     8     9 ar  
    16     8    28 1   
    17     9    10 ar  
    18     9    12 1   
    19    10    11 ar  
    20    10    29 1   
    21    12    13 1   
    22    12    30 1   
    23    12    31 1   
    24    13    14 1   
    25    13    32 1   
    26    13    33 1   
    27    14    15 1   
    28    14    34 1   
    29    15    16 1   
    30    15    35 1   
    31    15    36 1   
    32    16    17 ar  
    33    16    21 ar  
    34    17    18 ar  
    35    17    37 1   
    36    18    19 ar  
    37    18    22 1   
    38    19    20 ar  
    39    19    38 1   
    40    20    21 ar  
    41    20    39 1   
    42    21    40 1   
@<TRIPOS>SUBSTRUCTURE
     1 M7K         1 TEMP              0 ****  ****    0 ROOT
