@<TRIPOS>MOLECULE
M7K
   40    42     1     0     0
SMALL
abcg2


@<TRIPOS>ATOM
      1 N01         -4.7460    -1.2910    -0.5070 nb         1 M7K      -0.760000
      2 C02         -5.9970    -1.2140    -0.1190 ca         1 M7K       0.614900
      3 N02         -6.8070    -2.2810    -0.3420 nv         1 M7K      -1.065900
      4 C03         -6.5480    -0.0430     0.4900 ca         1 M7K      -0.210000
      5 C04         -5.7430     1.0340     0.6760 ca         1 M7K      -0.028000
      6 C05         -4.3870     0.9840     0.2660 ca         1 M7K      -0.130000
      7 C06         -3.4890     2.0580     0.4260 ca         1 M7K      -0.072000
      8 C07         -2.1880     1.9450     0.0110 ca         1 M7K      -0.126000
      9 C08         -1.7240     0.7530    -0.5890 ca         1 M7K      -0.059300
     10 C09         -2.5930    -0.3010    -0.7490 ca         1 M7K      -0.101000
     11 C10         -3.9380    -0.2180    -0.3290 ca         1 M7K       0.327000
     12 C11         -0.2830     0.6420    -0.9970 c3         1 M7K      -0.036100
     13 C12          0.6150     0.3540     0.2030 c3         1 M7K       0.159800
     14 N13          2.0080     0.3070    -0.1950 n7         1 M7K      -0.865400
     15 C14          2.8990     0.0450     0.9160 c3         1 M7K       0.204100
     16 C21          4.3450     0.1140     0.5000 ca         1 M7K      -0.062300
     17 C22          5.2510    -0.8320     0.9670 ca         1 M7K      -0.152000
     18 C23          6.5830    -0.7280     0.6100 ca         1 M7K       0.167000
     19 C24          7.0550     0.2790    -0.2070 ca         1 M7K      -0.150000
     20 C25          6.1420     1.2160    -0.6760 ca         1 M7K      -0.090000
     21 C26          4.8010     1.1370    -0.3300 ca         1 M7K      -0.104000
     22 F27          7.4460    -1.6490     1.0720 f          1 M7K      -0.182000
     23 HN02        -6.3630    -3.1590    -0.5560 hn         1 M7K       0.476000
     24 HN0A        -7.6620    -2.3530     0.1820 hn         1 M7K       0.476000
     25 H03         -7.5860    -0.0280     0.7940 ha         1 M7K       0.120000
     26 H04         -6.1300     1.9350     1.1370 ha         1 M7K       0.116000
     27 H06         -3.8420     2.9760     0.8810 ha         1 M7K       0.112000
     28 H07         -1.5040     2.7760     0.1390 ha         1 M7K       0.115000
     29 H09         -2.2550    -1.2250    -1.2050 ha         1 M7K       0.127000
     30 H11         -0.1650    -0.1530    -1.7380 hc         1 M7K       0.055700
     31 H11A         0.0470     1.5720    -1.4680 hc         1 M7K       0.055700
     32 H12          0.4980     1.1520     0.9430 h1         1 M7K       0.035200
     33 H12A         0.2760    -0.5730     0.6900 h1         1 M7K       0.035200
     34 HN13         2.1300    -0.4210    -0.8900 hn         1 M7K       0.412000
     35 H14          2.7180     0.8100     1.6790 h1         1 M7K       0.039700
     36 H14A         2.7080    -0.9200     1.4080 h1         1 M7K       0.039700
     37 H22          4.9230    -1.6480     1.6010 ha         1 M7K       0.128000
     38 H24          8.1030     0.3310    -0.4730 ha         1 M7K       0.131000
     39 H25          6.4870     2.0150    -1.3190 ha         1 M7K       0.117000
     40 H26          4.1010     1.8700    -0.7080 ha         1 M7K       0.133000
@<TRIPOS>BOND
     1     1     2 ar  
     2     1    11 ar  
     3     2     3 1   
     4     2     4 ar  
     5     3    23 1   
     6     3    24 1   
     7     4     5 ar  
     8     4    25 1   
     9     5     6 ar  
    10     5    26 1   
    11     6     7 ar  
    12     6    11 ar  
    13     7     8 ar  
    14     7    27 1   
    15     8     9 ar  
    16     8    28 1   
    17     9    10 ar  
    18     9    12 1   
    19    10    11 ar  
    20    10    29 1   
    21    12    13 1   
    22    12    30 1   
    23    12    31 1   
    24    13    14 1   
    25    13    32 1   
    26    13    33 1   
    27    14    15 1   
    28    14    34 1   
    29    15    16 1   
    30    15    35 1   
    31    15    36 1   
    32    16    17 ar  
    33    16    21 ar  
    34    17    18 ar  
    35    17    37 1   
    36    18    19 ar  
    37    18    22 1   
    38    19    20 ar  
    39    19    38 1   
    40    20    21 ar  
    41    20    39 1   
    42    21    40 1   
@<TRIPOS>SUBSTRUCTURE
     1 M7K         1 TEMP              0 ****  ****    0 ROOT
