@<TRIPOS>MOLECULE
M7N
   58    60     1     0     0
SMALL
No Charge or Current Charge


@<TRIPOS>ATOM
      1 C7          -2.5630    -0.5190    -0.8970 ca         1 M7N      -0.100000
      2 C6          -3.6270     0.3710    -0.6720 ca         1 M7N      -0.102000
      3 C5          -4.3670     0.3100     0.5240 ca         1 M7N      -0.076300
      4 C4          -5.5220     1.2820     0.7620 c3         1 M7N       0.214100
      5 C3          -8.2500    -0.6090    -1.2250 c3         1 M7N      -0.089600
      6 C2          -7.2400    -0.2640    -0.1110 c3         1 M7N       0.169800
      7 C1          -7.6940     2.1800    -0.0450 c3         1 M7N       0.169800
      8 C8          -2.2270    -1.4830     0.0730 ca         1 M7N      -0.116300
      9 C9          -1.0720    -2.4420    -0.1670 c3         1 M7N       0.160300
     10 C10          1.4030    -2.4840     0.1970 c          1 M7N       0.641100
     11 C11          3.9010    -2.2700     0.5760 c6         1 M7N       0.078000
     12 N1           0.1840    -1.8690     0.3030 ns         1 M7N      -0.513900
     13 C12          4.7540    -1.3540    -0.3430 c6         1 M7N       0.194800
     14 C13          2.4700    -0.3790     1.2260 c6         1 M7N       0.078000
     15 C14          3.2840     0.5900     0.3230 c6         1 M7N       0.194800
     16 N2           2.5090    -1.7720     0.7020 n          1 M7N      -0.406800
     17 C15          5.7280     1.0090    -0.2910 ca         1 M7N       0.391900
     18 C16          6.4720     3.1840    -0.4460 ca         1 M7N       0.154400
     19 N3           4.6850     0.1010     0.0520 nh         1 M7N      -0.776300
     20 C17          7.7030     2.7260    -0.9360 ca         1 M7N      -0.289000
     21 C18          7.8680     1.3400    -1.0770 ca         1 M7N       0.154400
     22 C19         -2.9640    -1.5430     1.2710 ca         1 M7N      -0.100000
     23 C20         -4.0280    -0.6520     1.4950 ca         1 M7N      -0.102000
     24 N4           5.4840     2.3280    -0.1230 nb         1 M7N      -0.250500
     25 O            1.5170    -3.5910    -0.3070 o          1 M7N      -0.642100
     26 N5           6.8830     0.4810    -0.7550 nb         1 M7N      -0.250500
     27 N           -6.6650     1.1100    -0.1800 n3         1 M7N      -0.729600
     28 C           -7.1910     3.6130    -0.3170 c3         1 M7N      -0.089600
     29 H1          -1.9990    -0.4600    -1.8260 ha         1 M7N       0.115500
     30 H2          -3.8820     1.1090    -1.4300 ha         1 M7N       0.121000
     31 H3          -5.8740     1.1770     1.7980 h1         1 M7N       0.038700
     32 H4          -5.1010     2.2920     0.6740 h1         1 M7N       0.038700
     33 H5          -9.1870    -0.0530    -1.1070 hc         1 M7N       0.036700
     34 H6          -7.8280    -0.3860    -2.2120 hc         1 M7N       0.036700
     35 H7          -8.4930    -1.6780    -1.1910 hc         1 M7N       0.036700
     36 H8          -7.7250    -0.4200     0.8630 h1         1 M7N       0.031450
     37 H9          -6.4350    -1.0070    -0.1860 h1         1 M7N       0.031450
     38 H10         -8.5080     2.0050    -0.7590 h1         1 M7N       0.031450
     39 H11         -8.1400     2.1500     0.9590 h1         1 M7N       0.031450
     40 H12         -1.2540    -3.3870     0.3620 h1         1 M7N       0.057700
     41 H13         -0.9870    -2.6630    -1.2390 h1         1 M7N       0.057700
     42 H14          3.9210    -3.2960     0.1830 h1         1 M7N       0.065700
     43 H15          4.3590    -2.3000     1.5750 h1         1 M7N       0.065700
     44 H16          0.1590    -0.9590     0.7390 hn         1 M7N       0.312500
     45 H17          5.7860    -1.7320    -0.3060 h1         1 M7N       0.068700
     46 H18          4.4050    -1.4720    -1.3800 h1         1 M7N       0.068700
     47 H19          2.9090    -0.3720     2.2330 h1         1 M7N       0.065700
     48 H20          1.4460     0.0000     1.3270 h1         1 M7N       0.065700
     49 H21          2.7470     0.7210    -0.6280 h1         1 M7N       0.068700
     50 H22          3.2900     1.5680     0.8270 h1         1 M7N       0.068700
     51 H23          6.2720     4.2460    -0.3100 h4         1 M7N       0.019600
     52 H24          8.5000     3.4180    -1.1960 ha         1 M7N       0.135000
     53 H25          8.7970     0.9120    -1.4510 h4         1 M7N       0.019600
     54 H26         -2.7120    -2.2800     2.0310 ha         1 M7N       0.115500
     55 H27         -4.5910    -0.7110     2.4250 ha         1 M7N       0.121000
     56 H29         -8.0400     4.3060    -0.3600 hc         1 M7N       0.036700
     57 H30         -6.5200     3.9620     0.4760 hc         1 M7N       0.036700
     58 H31         -6.6620     3.6620    -1.2760 hc         1 M7N       0.036700
@<TRIPOS>BOND
     1     1     2 ar  
     2     1     8 ar  
     3     1    29 1   
     4     2     3 ar  
     5     2    30 1   
     6     3     4 1   
     7     3    23 ar  
     8     4    27 1   
     9     4    31 1   
    10     4    32 1   
    11     5     6 1   
    12     5    33 1   
    13     5    34 1   
    14     5    35 1   
    15     6    27 1   
    16     6    36 1   
    17     6    37 1   
    18     7    27 1   
    19     7    28 1   
    20     7    38 1   
    21     7    39 1   
    22     8     9 1   
    23     8    22 ar  
    24     9    12 1   
    25     9    40 1   
    26     9    41 1   
    27    10    12 1   
    28    10    16 1   
    29    10    25 2   
    30    11    13 1   
    31    11    16 1   
    32    11    42 1   
    33    11    43 1   
    34    12    44 1   
    35    13    19 1   
    36    13    45 1   
    37    13    46 1   
    38    14    15 1   
    39    14    16 1   
    40    14    47 1   
    41    14    48 1   
    42    15    19 1   
    43    15    49 1   
    44    15    50 1   
    45    17    19 1   
    46    17    24 ar  
    47    17    26 ar  
    48    18    20 ar  
    49    18    24 ar  
    50    18    51 1   
    51    20    21 ar  
    52    20    52 1   
    53    21    26 ar  
    54    21    53 1   
    55    22    23 ar  
    56    22    54 1   
    57    23    55 1   
    58    28    56 1   
    59    28    57 1   
    60    28    58 1   
@<TRIPOS>SUBSTRUCTURE
     1 M7N         1 TEMP              0 ****  ****    0 ROOT
