@<TRIPOS>MOLECULE
M7N
   58    60     1     0     0
SMALL
bcc


@<TRIPOS>ATOM
      1 C7          -2.7390    -0.5540    -0.9130 ca         1 M7N      -0.118000
      2 C6          -3.8460     0.2250    -0.6130 ca         1 M7N      -0.120000
      3 C5          -4.4220     0.1840     0.6540 ca         1 M7N      -0.076300
      4 C4          -5.6050     1.0570     0.9860 c3         1 M7N       0.214100
      5 C3          -8.0040    -0.5370    -1.3950 c3         1 M7N      -0.089600
      6 C2          -7.3030    -0.2640    -0.0740 c3         1 M7N       0.169800
      7 C1          -7.5460     2.1430     0.0690 c3         1 M7N       0.169800
      8 C8          -2.1840    -1.4040     0.0410 ca         1 M7N      -0.116300
      9 C9          -0.9730    -2.2380    -0.2700 c3         1 M7N       0.160300
     10 C10          1.4230    -2.2010     0.1810 c          1 M7N       0.775100
     11 C11          3.8090    -2.1130     0.6230 c6         1 M7N       0.078000
     12 N1           0.2130    -1.5930     0.2660 ns         1 M7N      -0.580900
     13 C12          4.5300    -1.3130    -0.4520 c6         1 M7N       0.194800
     14 C13          2.5030    -0.2080     1.2300 c6         1 M7N       0.078000
     15 C14          3.1730     0.6320     0.1530 c6         1 M7N       0.194800
     16 N2           2.4670    -1.6080     0.8470 n          1 M7N      -0.473800
     17 C15          5.5520     0.9180    -0.3710 ca         1 M7N       0.917900
     18 C16          6.4300     3.0100    -0.3870 ca         1 M7N       0.482700
     19 N3           4.4910     0.1050    -0.1420 nh         1 M7N      -0.776300
     20 C17          7.6680     2.5230    -0.7750 ca         1 M7N      -0.437600
     21 C18          7.7330     1.1500    -0.9490 ca         1 M7N       0.482700
     22 C19         -2.7630    -1.4490     1.3050 ca         1 M7N      -0.118000
     23 C20         -3.8680    -0.6640     1.6070 ca         1 M7N      -0.120000
     24 N4           5.3800     2.2340    -0.1860 nb         1 M7N      -0.776500
     25 O            1.5620    -3.2450    -0.4490 o          1 M7N      -0.642100
     26 N5           6.7010     0.3490    -0.7570 nb         1 M7N      -0.776500
     27 N           -6.6240     1.0230    -0.0440 n3         1 M7N      -0.729600
     28 C           -6.9600     3.4450    -0.4540 c3         1 M7N      -0.089600
     29 H1          -2.3040    -0.5080    -1.9050 ha         1 M7N       0.133500
     30 H2          -4.2810     0.8650    -1.3710 ha         1 M7N       0.139000
     31 H3          -6.0010     0.7750     1.9760 h1         1 M7N       0.038700
     32 H4          -5.2500     2.0860     1.0900 h1         1 M7N       0.038700
     33 H5          -8.8100     0.1690    -1.5950 hc         1 M7N       0.036700
     34 H6          -7.2950    -0.4820    -2.2220 hc         1 M7N       0.036700
     35 H7          -8.4430    -1.5350    -1.3890 hc         1 M7N       0.036700
     36 H8          -8.0200    -0.3630     0.7590 h1         1 M7N       0.031450
     37 H9          -6.5530    -1.0440     0.0770 h1         1 M7N       0.031450
     38 H10         -8.4370     1.9140    -0.5170 h1         1 M7N       0.031450
     39 H11         -7.8950     2.2760     1.1070 h1         1 M7N       0.031450
     40 H12         -1.0950    -3.2400     0.1520 h1         1 M7N       0.057700
     41 H13         -0.8720    -2.3580    -1.3500 h1         1 M7N       0.057700
     42 H14          3.7750    -3.1610     0.3410 h1         1 M7N       0.065700
     43 H15          4.3620    -2.0420     1.5640 h1         1 M7N       0.065700
     44 H16          0.0570    -0.8650     0.9410 hn         1 M7N       0.312500
     45 H17          5.5640    -1.6390    -0.5200 h1         1 M7N       0.068700
     46 H18          4.0590    -1.4980    -1.4250 h1         1 M7N       0.068700
     47 H19          3.0690    -0.1260     2.1620 h1         1 M7N       0.065700
     48 H20          1.5150     0.1950     1.4400 h1         1 M7N       0.065700
     49 H21          2.5510     0.6230    -0.7520 h1         1 M7N       0.068700
     50 H22          3.2560     1.6610     0.4870 h1         1 M7N       0.068700
     51 H23          6.2760     4.0730    -0.2330 h4         1 M7N       0.019600
     52 H24          8.5170     3.1690    -0.9400 ha         1 M7N       0.153000
     53 H25          8.6580     0.6750    -1.2590 h4         1 M7N       0.019600
     54 H26         -2.3560    -2.1120     2.0590 ha         1 M7N       0.133500
     55 H27         -4.3090    -0.7210     2.5950 ha         1 M7N       0.139000
     56 H29         -7.6970     4.2460    -0.3870 hc         1 M7N       0.036700
     57 H30         -6.0830     3.7660     0.1090 hc         1 M7N       0.036700
     58 H31         -6.6660     3.3400    -1.4980 hc         1 M7N       0.036700
@<TRIPOS>BOND
     1     1     2 ar  
     2     1     8 ar  
     3     1    29 1   
     4     2     3 ar  
     5     2    30 1   
     6     3     4 1   
     7     3    23 ar  
     8     4    27 1   
     9     4    31 1   
    10     4    32 1   
    11     5     6 1   
    12     5    33 1   
    13     5    34 1   
    14     5    35 1   
    15     6    27 1   
    16     6    36 1   
    17     6    37 1   
    18     7    27 1   
    19     7    28 1   
    20     7    38 1   
    21     7    39 1   
    22     8     9 1   
    23     8    22 ar  
    24     9    12 1   
    25     9    40 1   
    26     9    41 1   
    27    10    12 1   
    28    10    16 1   
    29    10    25 2   
    30    11    13 1   
    31    11    16 1   
    32    11    42 1   
    33    11    43 1   
    34    12    44 1   
    35    13    19 1   
    36    13    45 1   
    37    13    46 1   
    38    14    15 1   
    39    14    16 1   
    40    14    47 1   
    41    14    48 1   
    42    15    19 1   
    43    15    49 1   
    44    15    50 1   
    45    17    19 1   
    46    17    24 ar  
    47    17    26 ar  
    48    18    20 ar  
    49    18    24 ar  
    50    18    51 1   
    51    20    21 ar  
    52    20    52 1   
    53    21    26 ar  
    54    21    53 1   
    55    22    23 ar  
    56    22    54 1   
    57    23    55 1   
    58    28    56 1   
    59    28    57 1   
    60    28    58 1   
@<TRIPOS>SUBSTRUCTURE
     1 M7N         1 TEMP              0 ****  ****    0 ROOT
