@<TRIPOS>MOLECULE
M7O
   33    34     1     0     0
SMALL
abcg2


@<TRIPOS>ATOM
      1 C3          -2.6150     0.9370    -1.8080 c3         1 M7O       0.157300
      2 C11         -5.0090    -0.4980     1.4680 ca         1 M7O      -0.114000
      3 C13         -4.4890     0.7890     1.5000 ca         1 M7O      -0.119000
      4 C15         -3.7280     1.2610     0.4390 ca         1 M7O      -0.088500
      5 C17         -0.3640     0.9480    -0.8560 c          1 M7O       0.652100
      6 C21          1.9040     0.4290     0.0200 ca         1 M7O       0.023000
      7 C22          2.9520    -0.5180    -0.0680 ca         1 M7O      -0.205600
      8 C23          4.1150    -0.2930     0.6660 ca         1 M7O      -0.060000
      9 C25          4.2770     0.8160     1.4750 ca         1 M7O      -0.183000
     10 C27          3.2410     1.7360     1.5560 ca         1 M7O      -0.104000
     11 C29          2.0700     1.5510     0.8430 ca         1 M7O      -0.182000
     12 N1          -1.2600     0.4320    -1.7420 ns         1 M7O      -0.510900
     13 C6          -3.4780     0.4550    -0.6690 ca         1 M7O      -0.112300
     14 C7          -4.0120    -0.8320    -0.6950 ca         1 M7O      -0.088500
     15 C9          -4.7700    -1.3070     0.3650 ca         1 M7O      -0.119000
     16 O18         -0.5620     2.0130    -0.2820 o          1 M7O      -0.679100
     17 N19          0.7540     0.1780    -0.7150 ns         1 M7O      -0.180000
     18 C31          2.8890    -1.7780    -0.9190 c          1 M7O       0.725600
     19 O32          3.8790    -2.5130    -0.8980 o          1 M7O      -0.715000
     20 O33          1.8440    -1.9980    -1.5840 o          1 M7O      -0.715000
     21 H1          -2.5850     2.0250    -1.8330 h1         1 M7O       0.052700
     22 H2          -3.0300     0.6100    -2.7620 h1         1 M7O       0.052700
     23 H3          -5.6030    -0.8640     2.2950 ha         1 M7O       0.101000
     24 H4          -4.6760     1.4280     2.3540 ha         1 M7O       0.104500
     25 H5          -3.3260     2.2660     0.4700 ha         1 M7O       0.117500
     26 H6           4.9120    -1.0190     0.5920 ha         1 M7O       0.126000
     27 H7           5.1910     0.9630     2.0350 ha         1 M7O       0.088000
     28 H8           3.3400     2.6130     2.1830 ha         1 M7O       0.083000
     29 H9           1.2810     2.2780     0.9290 ha         1 M7O       0.129000
     30 H10         -1.1210    -0.5080    -2.0740 hn         1 M7O       0.314500
     31 H11         -3.8370    -1.4670    -1.5550 ha         1 M7O       0.117500
     32 H12         -5.1790    -2.3090     0.3300 ha         1 M7O       0.104500
     33 H13          0.8550    -0.7050    -1.2430 hn         1 M7O       0.226000
@<TRIPOS>BOND
     1     1    12 1   
     2     1    13 1   
     3     1    21 1   
     4     1    22 1   
     5     2     3 ar  
     6     2    15 ar  
     7     2    23 1   
     8     3     4 ar  
     9     3    24 1   
    10     4    13 ar  
    11     4    25 1   
    12     5    12 1   
    13     5    16 2   
    14     5    17 1   
    15     6     7 ar  
    16     6    11 ar  
    17     6    17 1   
    18     7     8 ar  
    19     7    18 1   
    20     8     9 ar  
    21     8    26 1   
    22     9    10 ar  
    23     9    27 1   
    24    10    11 ar  
    25    10    28 1   
    26    11    29 1   
    27    12    30 1   
    28    13    14 ar  
    29    14    15 ar  
    30    14    31 1   
    31    15    32 1   
    32    17    33 1   
    33    18    19 1   
    34    18    20 1   
@<TRIPOS>SUBSTRUCTURE
     1 M7O         1 TEMP              0 ****  ****    0 ROOT
