@<TRIPOS>MOLECULE
M7O
   33    34     1     0     0
SMALL
No Charge or Current Charge


@<TRIPOS>ATOM
      1 C3          -2.5840     0.7400    -1.7100 c3         1 M7O       0.157300
      2 C11         -5.5280    -0.3710     1.2810 ca         1 M7O      -0.114000
      3 C13         -4.7510     0.7870     1.4540 ca         1 M7O      -0.119000
      4 C15         -3.7980     1.1470     0.4850 ca         1 M7O      -0.088500
      5 C17         -0.2700     0.9180    -0.7450 c          1 M7O       0.652100
      6 C21          2.1070     0.4280     0.1040 ca         1 M7O       0.023000
      7 C22          3.1930    -0.4720    -0.0870 ca         1 M7O      -0.205600
      8 C23          4.4290    -0.2000     0.5450 ca         1 M7O      -0.060000
      9 C25          4.5880     0.9310     1.3590 ca         1 M7O      -0.183000
     10 C27          3.5160     1.8090     1.5560 ca         1 M7O      -0.104000
     11 C29          2.2840     1.5580     0.9340 ca         1 M7O      -0.182000
     12 N1          -1.2620     0.2080    -1.3770 ns         1 M7O      -0.510900
     13 C6          -3.6170     0.3510    -0.6630 ca         1 M7O      -0.112300
     14 C7          -4.3980    -0.8110    -0.8300 ca         1 M7O      -0.088500
     15 C9          -5.3500    -1.1690     0.1390 ca         1 M7O      -0.119000
     16 O18         -0.4030     2.0930    -0.4300 o          1 M7O      -0.679100
     17 N19          0.8660     0.1580    -0.5360 ns         1 M7O      -0.180000
     18 C31          3.0790    -1.7110    -0.9570 c          1 M7O       0.725600
     19 O32          4.0760    -2.0860    -1.5570 o          1 M7O      -0.715000
     20 O33          2.0080    -2.2990    -1.0140 o          1 M7O      -0.715000
     21 H1          -2.5370     1.8340    -1.8000 h1         1 M7O       0.052700
     22 H2          -2.8820     0.3430    -2.6890 h1         1 M7O       0.052700
     23 H3          -6.2650    -0.6490     2.0320 ha         1 M7O       0.101000
     24 H4          -4.8860     1.4060     2.3380 ha         1 M7O       0.104500
     25 H5          -3.1980     2.0440     0.6260 ha         1 M7O       0.117500
     26 H6           5.2720    -0.8750     0.4090 ha         1 M7O       0.126000
     27 H7           5.5440     1.1240     1.8400 ha         1 M7O       0.088000
     28 H8           3.6370     2.6820     2.1920 ha         1 M7O       0.083000
     29 H9           1.4690     2.2510     1.1190 ha         1 M7O       0.129000
     30 H10         -1.0700    -0.7600    -1.6000 hn         1 M7O       0.314500
     31 H11         -4.2660    -1.4360    -1.7110 ha         1 M7O       0.117500
     32 H12         -5.9500    -2.0670     0.0050 ha         1 M7O       0.104500
     33 H13          0.8070    -0.7870    -0.8940 hn         1 M7O       0.226000
@<TRIPOS>BOND
     1     1    12 1   
     2     1    13 1   
     3     1    21 1   
     4     1    22 1   
     5     2     3 ar  
     6     2    15 ar  
     7     2    23 1   
     8     3     4 ar  
     9     3    24 1   
    10     4    13 ar  
    11     4    25 1   
    12     5    12 1   
    13     5    16 2   
    14     5    17 1   
    15     6     7 ar  
    16     6    11 ar  
    17     6    17 1   
    18     7     8 ar  
    19     7    18 1   
    20     8     9 ar  
    21     8    26 1   
    22     9    10 ar  
    23     9    27 1   
    24    10    11 ar  
    25    10    28 1   
    26    11    29 1   
    27    12    30 1   
    28    13    14 ar  
    29    14    15 ar  
    30    14    31 1   
    31    15    32 1   
    32    17    33 1   
    33    18    19 1   
    34    18    20 1   
@<TRIPOS>SUBSTRUCTURE
     1 M7O         1 TEMP              0 ****  ****    0 ROOT
