@<TRIPOS>MOLECULE
M7R
   84    89     1     0     0
SMALL
bcc


@<TRIPOS>ATOM
      1 C1           4.4870    -1.6190     0.9770 c          1 M7R       0.927600
      2 O1           4.7010    -1.5760     2.2080 o          1 M7R      -0.838300
      3 C2           5.5830    -1.0100     0.0810 c3         1 M7R      -0.189700
      4 O2           3.4870    -2.1070     0.4190 o          1 M7R      -0.838300
      5 C3           6.9070    -1.7660     0.2580 c3         1 M7R      -0.013100
      6 O3           1.1080     3.5520    -0.3310 os         1 M7R      -0.328900
      7 C4           6.8080    -3.2180    -0.1160 ca         1 M7R      -0.040300
      8 C5           5.8000     0.4740     0.4040 c3         1 M7R      -0.008100
      9 C6           4.5740     1.3150     0.1880 ca         1 M7R      -0.073300
     10 C7           3.6510     1.5210     1.2120 ca         1 M7R      -0.051000
     11 C8           2.4960     2.2650     1.0320 ca         1 M7R      -0.160300
     12 C9           2.2420     2.8330    -0.2260 ca         1 M7R       0.136100
     13 C10          3.1450     2.6350    -1.2640 ca         1 M7R      -0.229000
     14 C11          4.2950     1.8830    -1.0470 ca         1 M7R      -0.090000
     15 C12          0.6860     4.0090    -1.6030 c3         1 M7R       0.145400
     16 C13         -0.6900     4.6250    -1.4500 c3         1 M7R      -0.085400
     17 C14         -1.2110     5.1510    -2.7800 c3         1 M7R      -0.087100
     18 C15          1.5140     2.4410     2.1570 c3         1 M7R       0.165300
     19 C17         -3.3290     1.7110     1.9830 ca         1 M7R      -0.091000
     20 C19         -4.4100     1.0470     1.4330 ca         1 M7R      -0.140500
     21 C22         -1.9830     1.0350     0.1260 ca         1 M7R      -0.091000
     22 C23         -5.5200    -0.3760    -0.3330 c6         1 M7R       0.003300
     23 C24         -5.2820    -0.9490    -1.7390 c6         1 M7R      -0.062733
     24 C25         -6.7520     0.5490    -0.4020 c6         1 M7R      -0.062733
     25 C26         -5.8350    -1.5530     0.6130 c6         1 M7R      -0.062733
     26 C27         -6.5110    -1.7200    -2.2270 c6         1 M7R      -0.060033
     27 C28         -7.9820    -0.2260    -0.8810 c6         1 M7R      -0.060033
     28 C29         -7.0660    -2.3210     0.1300 c6         1 M7R      -0.060033
     29 C30         -7.7190    -0.7850    -2.2790 c6         1 M7R      -0.067400
     30 C31         -6.7980    -2.8780    -1.2690 c6         1 M7R      -0.067400
     31 C32         -8.2690    -1.3770     0.0860 c6         1 M7R      -0.067400
     32 C51          6.9740    -3.6220    -1.4390 ca         1 M7R      -0.114000
     33 C52          6.8580    -4.9570    -1.8010 ca         1 M7R      -0.138500
     34 C53          6.5740    -5.9180    -0.8380 ca         1 M7R      -0.150000
     35 C54          6.4040    -5.5290     0.4840 ca         1 M7R      -0.138500
     36 C55          6.5190    -4.1910     0.8400 ca         1 M7R      -0.114000
     37 C87         -2.0910     1.6940     1.3440 ca         1 M7R      -0.142600
     38 C97         -0.9430     2.4220     1.9590 c          1 M7R       0.683700
     39 C98         -4.3160     0.3740     0.2100 ca         1 M7R      -0.056300
     40 C99         -3.0820     0.3970    -0.4350 ca         1 M7R      -0.140500
     41 N99          0.2480     1.8150     1.8400 ns         1 M7R      -0.547900
     42 O99         -1.1080     3.4860     2.5420 o          1 M7R      -0.627100
     43 H2           5.2750    -1.0930    -0.9670 hc         1 M7R       0.039700
     44 H3           7.6720    -1.2850    -0.3580 hc         1 M7R       0.029700
     45 H3A          7.2320    -1.6680     1.2960 hc         1 M7R       0.029700
     46 H5           6.1330     0.5640     1.4410 hc         1 M7R       0.030700
     47 H5A          6.6160     0.8540    -0.2190 hc         1 M7R       0.030700
     48 H7           3.8340     1.0730     2.1830 ha         1 M7R       0.163000
     49 H10          2.9760     3.0640    -2.2430 ha         1 M7R       0.119000
     50 H11          4.9890     1.7430    -1.8690 ha         1 M7R       0.119000
     51 H12          1.3910     4.7480    -2.0020 h1         1 M7R       0.026200
     52 H12A         0.6490     3.1740    -2.3140 h1         1 M7R       0.026200
     53 H13         -1.3760     3.8750    -1.0490 hc         1 M7R       0.058200
     54 H13A        -0.6470     5.4360    -0.7200 hc         1 M7R       0.058200
     55 H14         -2.2020     5.5880    -2.6640 hc         1 M7R       0.029033
     56 H14A        -0.5560     5.9220    -3.1880 hc         1 M7R       0.029033
     57 H14B        -1.2880     4.3540    -3.5220 hc         1 M7R       0.029033
     58 H15          1.9310     2.0120     3.0710 h1         1 M7R       0.058700
     59 H15A         1.3260     3.4950     2.3590 h1         1 M7R       0.058700
     60 H17         -3.4440     2.2290     2.9260 ha         1 M7R       0.145500
     61 H19         -5.3460     1.0570     1.9780 ha         1 M7R       0.127500
     62 H22         -1.0460     1.0300    -0.4190 ha         1 M7R       0.145500
     63 H24         -5.0530    -0.1390    -2.4410 hc         1 M7R       0.044700
     64 H24A        -4.4150    -1.6170    -1.7340 hc         1 M7R       0.044700
     65 H25         -6.9610     0.9860     0.5780 hc         1 M7R       0.044700
     66 H25A        -6.5420     1.3820    -1.0810 hc         1 M7R       0.044700
     67 H26         -4.9690    -2.2220     0.6630 hc         1 M7R       0.044700
     68 H26A        -6.0020    -1.1840     1.6300 hc         1 M7R       0.044700
     69 H27         -6.3050    -2.1130    -3.2270 hc         1 M7R       0.045033
     70 H28         -8.8390     0.4540    -0.9100 hc         1 M7R       0.045033
     71 H29         -7.2670    -3.1420     0.8240 hc         1 M7R       0.045033
     72 H30         -7.5360     0.0310    -2.9850 hc         1 M7R       0.036700
     73 H30A        -8.5990    -1.3250    -2.6420 hc         1 M7R       0.036700
     74 H31         -7.6590    -3.4550    -1.6210 hc         1 M7R       0.036700
     75 H31A        -5.9450    -3.5630    -1.2430 hc         1 M7R       0.036700
     76 H32         -8.4770    -0.9850     1.0870 hc         1 M7R       0.036700
     77 H32A        -9.1650    -1.9190    -0.2320 hc         1 M7R       0.036700
     78 H51          7.2000    -2.8790    -2.1970 ha         1 M7R       0.134500
     79 H52          6.9950    -5.2490    -2.8350 ha         1 M7R       0.111500
     80 H53          6.4870    -6.9610    -1.1150 ha         1 M7R       0.108000
     81 H54          6.1840    -6.2690     1.2430 ha         1 M7R       0.111500
     82 H55          6.3730    -3.8930     1.8710 ha         1 M7R       0.134500
     83 H99         -2.9500    -0.0880    -1.3920 ha         1 M7R       0.127500
     84 HN99         0.2830     0.9000     1.4210 hn         1 M7R       0.329500
@<TRIPOS>BOND
     1     1     2 1   
     2     1     3 1   
     3     1     4 1   
     4     3     5 1   
     5     3     8 1   
     6     3    43 1   
     7     5     7 1   
     8     5    44 1   
     9     5    45 1   
    10     6    12 1   
    11     6    15 1   
    12     7    32 ar  
    13     7    36 ar  
    14     8     9 1   
    15     8    46 1   
    16     8    47 1   
    17     9    10 ar  
    18     9    14 ar  
    19    10    11 ar  
    20    10    48 1   
    21    11    12 ar  
    22    11    18 1   
    23    12    13 ar  
    24    13    14 ar  
    25    13    49 1   
    26    14    50 1   
    27    15    16 1   
    28    15    51 1   
    29    15    52 1   
    30    16    17 1   
    31    16    53 1   
    32    16    54 1   
    33    17    55 1   
    34    17    56 1   
    35    17    57 1   
    36    18    41 1   
    37    18    58 1   
    38    18    59 1   
    39    19    20 ar  
    40    19    37 ar  
    41    19    60 1   
    42    20    39 ar  
    43    20    61 1   
    44    21    37 ar  
    45    21    40 ar  
    46    21    62 1   
    47    22    23 1   
    48    22    24 1   
    49    22    25 1   
    50    22    39 1   
    51    23    26 1   
    52    23    63 1   
    53    23    64 1   
    54    24    27 1   
    55    24    65 1   
    56    24    66 1   
    57    25    28 1   
    58    25    67 1   
    59    25    68 1   
    60    26    29 1   
    61    26    30 1   
    62    26    69 1   
    63    27    29 1   
    64    27    31 1   
    65    27    70 1   
    66    28    30 1   
    67    28    31 1   
    68    28    71 1   
    69    29    72 1   
    70    29    73 1   
    71    30    74 1   
    72    30    75 1   
    73    31    76 1   
    74    31    77 1   
    75    32    33 ar  
    76    32    78 1   
    77    33    34 ar  
    78    33    79 1   
    79    34    35 ar  
    80    34    80 1   
    81    35    36 ar  
    82    35    81 1   
    83    36    82 1   
    84    37    38 1   
    85    38    41 1   
    86    38    42 2   
    87    39    40 ar  
    88    40    83 1   
    89    41    84 1   
@<TRIPOS>SUBSTRUCTURE
     1 M7R         1 TEMP              0 ****  ****    0 ROOT
