@<TRIPOS>MOLECULE
M7R
   84    89     1     0     0
SMALL
No Charge or Current Charge


@<TRIPOS>ATOM
      1 C1           4.1460    -1.6600     0.8040 c          1 M7R       0.717000
      2 O1           3.9920    -1.8430     2.0040 o          1 M7R      -0.733000
      3 C2           5.4680    -1.0230     0.3140 c3         1 M7R      -0.189700
      4 O2           3.3030    -1.9510    -0.0310 o          1 M7R      -0.733000
      5 C3           6.6840    -1.9290     0.6440 c3         1 M7R      -0.013100
      6 O3           1.5390     4.0240    -0.8100 os         1 M7R      -0.352100
      7 C4           6.6200    -3.2840    -0.0520 ca         1 M7R      -0.040300
      8 C5           5.6510     0.4080     0.8850 c3         1 M7R      -0.008100
      9 C6           4.5610     1.3710     0.4270 ca         1 M7R      -0.073300
     10 C7           3.4860     1.6870     1.2780 ca         1 M7R      -0.033000
     11 C8           2.4780     2.5800     0.8610 ca         1 M7R      -0.160300
     12 C9           2.5460     3.1600    -0.4240 ca         1 M7R       0.136100
     13 C10          3.6240     2.8410    -1.2770 ca         1 M7R      -0.211000
     14 C11          4.6250     1.9520    -0.8510 ca         1 M7R      -0.072000
     15 C12          1.5050     4.6380    -2.1080 c3         1 M7R       0.168600
     16 C13          0.2360     5.5080    -2.1760 c3         1 M7R      -0.085400
     17 C14          0.0720     6.2280    -3.5290 c3         1 M7R      -0.087100
     18 C15          1.3250     2.9030     1.8020 c3         1 M7R       0.165300
     19 C17         -3.4690     1.4300     2.1990 ca         1 M7R      -0.073000
     20 C19         -4.5670     0.7260     1.6780 ca         1 M7R      -0.122500
     21 C22         -2.1250     0.7250     0.3110 ca         1 M7R      -0.073000
     22 C23         -5.7140    -0.7580    -0.0750 c6         1 M7R       0.003300
     23 C24         -5.4460    -1.5060    -1.4310 c6         1 M7R      -0.062733
     24 C25         -6.8970     0.2420    -0.3150 c6         1 M7R      -0.062733
     25 C26         -6.1800    -1.8300     0.9700 c6         1 M7R      -0.062733
     26 C27         -6.7160    -2.2540    -1.9270 c6         1 M7R      -0.060033
     27 C28         -8.1720    -0.5040    -0.8070 c6         1 M7R      -0.060033
     28 C29         -7.4550    -2.5770     0.4790 c6         1 M7R      -0.060033
     29 C30         -7.8640    -1.2290    -2.1460 c6         1 M7R      -0.067400
     30 C31         -7.1470    -3.3000    -0.8620 c6         1 M7R      -0.067400
     31 C32         -8.6020    -1.5490     0.2620 c6         1 M7R      -0.067400
     32 C51          6.9380    -3.3940    -1.4200 ca         1 M7R      -0.096000
     33 C52          6.8840    -4.6430    -2.0630 ca         1 M7R      -0.120500
     34 C53          6.5120    -5.7900    -1.3430 ca         1 M7R      -0.132000
     35 C54          6.1940    -5.6870     0.0220 ca         1 M7R      -0.120500
     36 C55          6.2480    -4.4390     0.6660 ca         1 M7R      -0.096000
     37 C87         -2.2290     1.4430     1.5250 ca         1 M7R      -0.142600
     38 C97         -1.0660     2.2160     2.1150 c          1 M7R       0.616700
     39 C98         -4.4700     0.0080     0.4660 ca         1 M7R      -0.056300
     40 C99         -3.2260     0.0220    -0.2080 ca         1 M7R      -0.122500
     41 N99          0.1170     2.1840     1.4150 ns         1 M7R      -0.480900
     42 O99         -1.1610     2.8450     3.1610 o          1 M7R      -0.627100
     43 H2           5.4150    -0.9340    -0.7780 hc         1 M7R       0.039700
     44 H3           7.6050    -1.4160     0.3390 hc         1 M7R       0.029700
     45 H3A          6.7610    -2.0580     1.7310 hc         1 M7R       0.029700
     46 H5           5.6890     0.3640     1.9800 hc         1 M7R       0.030700
     47 H5A          6.6270     0.7960     0.5680 hc         1 M7R       0.030700
     48 H7           3.4320     1.2320     2.2660 ha         1 M7R       0.145000
     49 H10          3.7040     3.2710    -2.2710 ha         1 M7R       0.101000
     50 H11          5.4510     1.7130    -1.5170 ha         1 M7R       0.101000
     51 H12          2.3920     5.2670    -2.2620 h1         1 M7R       0.026200
     52 H12A         1.4700     3.8750    -2.8970 h1         1 M7R       0.026200
     53 H13         -0.6430     4.8770    -1.9960 hc         1 M7R       0.058200
     54 H13A         0.2680     6.2550    -1.3730 hc         1 M7R       0.058200
     55 H14         -0.8430     6.8340    -3.5310 hc         1 M7R       0.029033
     56 H14A         0.9240     6.8920    -3.7210 hc         1 M7R       0.029033
     57 H14B         0.0050     5.5030    -4.3480 hc         1 M7R       0.029033
     58 H15          1.5900     2.6280     2.8310 h1         1 M7R       0.058700
     59 H15A         1.1200     3.9820     1.7840 h1         1 M7R       0.058700
     60 H17         -3.5880     1.9710     3.1360 ha         1 M7R       0.127500
     61 H19         -5.5010     0.7460     2.2330 ha         1 M7R       0.109500
     62 H22         -1.1950     0.7000    -0.2520 ha         1 M7R       0.127500
     63 H24         -5.1250    -0.7920    -2.2020 hc         1 M7R       0.044700
     64 H24A        -4.6270    -2.2290    -1.3100 hc         1 M7R       0.044700
     65 H25         -7.1370     0.7910     0.6050 hc         1 M7R       0.044700
     66 H25A        -6.6010     1.0020    -1.0510 hc         1 M7R       0.044700
     67 H26         -5.3710    -2.5520     1.1520 hc         1 M7R       0.044700
     68 H26A        -6.3920    -1.3630     1.9410 hc         1 M7R       0.044700
     69 H27         -6.4950    -2.7650    -2.8740 hc         1 M7R       0.045033
     70 H28         -8.9840     0.2200    -0.9600 hc         1 M7R       0.045033
     71 H29         -7.7610    -3.3150     1.2320 hc         1 M7R       0.045033
     72 H30         -7.5800    -0.4990    -2.9170 hc         1 M7R       0.036700
     73 H30A        -8.7630    -1.7400    -2.5170 hc         1 M7R       0.036700
     74 H31         -8.0320    -3.8520    -1.2070 hc         1 M7R       0.036700
     75 H31A        -6.3530    -4.0450    -0.7180 hc         1 M7R       0.036700
     76 H32         -8.8460    -1.0470     1.2080 hc         1 M7R       0.036700
     77 H32A        -9.5180    -2.0650    -0.0600 hc         1 M7R       0.036700
     78 H51          7.2270    -2.5100    -1.9840 ha         1 M7R       0.116500
     79 H52          7.1300    -4.7210    -3.1200 ha         1 M7R       0.093500
     80 H53          6.4700    -6.7560    -1.8400 ha         1 M7R       0.090000
     81 H54          5.9050    -6.5740     0.5810 ha         1 M7R       0.093500
     82 H55          5.9980    -4.3680     1.7220 ha         1 M7R       0.116500
     83 H99         -3.0840    -0.5090    -1.1440 ha         1 M7R       0.109500
     84 HN99         0.1330     1.6590     0.5530 hn         1 M7R       0.329500
@<TRIPOS>BOND
     1     1     2 1   
     2     1     3 1   
     3     1     4 1   
     4     3     5 1   
     5     3     8 1   
     6     3    43 1   
     7     5     7 1   
     8     5    44 1   
     9     5    45 1   
    10     6    12 1   
    11     6    15 1   
    12     7    32 ar  
    13     7    36 ar  
    14     8     9 1   
    15     8    46 1   
    16     8    47 1   
    17     9    10 ar  
    18     9    14 ar  
    19    10    11 ar  
    20    10    48 1   
    21    11    12 ar  
    22    11    18 1   
    23    12    13 ar  
    24    13    14 ar  
    25    13    49 1   
    26    14    50 1   
    27    15    16 1   
    28    15    51 1   
    29    15    52 1   
    30    16    17 1   
    31    16    53 1   
    32    16    54 1   
    33    17    55 1   
    34    17    56 1   
    35    17    57 1   
    36    18    41 1   
    37    18    58 1   
    38    18    59 1   
    39    19    20 ar  
    40    19    37 ar  
    41    19    60 1   
    42    20    39 ar  
    43    20    61 1   
    44    21    37 ar  
    45    21    40 ar  
    46    21    62 1   
    47    22    23 1   
    48    22    24 1   
    49    22    25 1   
    50    22    39 1   
    51    23    26 1   
    52    23    63 1   
    53    23    64 1   
    54    24    27 1   
    55    24    65 1   
    56    24    66 1   
    57    25    28 1   
    58    25    67 1   
    59    25    68 1   
    60    26    29 1   
    61    26    30 1   
    62    26    69 1   
    63    27    29 1   
    64    27    31 1   
    65    27    70 1   
    66    28    30 1   
    67    28    31 1   
    68    28    71 1   
    69    29    72 1   
    70    29    73 1   
    71    30    74 1   
    72    30    75 1   
    73    31    76 1   
    74    31    77 1   
    75    32    33 ar  
    76    32    78 1   
    77    33    34 ar  
    78    33    79 1   
    79    34    35 ar  
    80    34    80 1   
    81    35    36 ar  
    82    35    81 1   
    83    36    82 1   
    84    37    38 1   
    85    38    41 1   
    86    38    42 2   
    87    39    40 ar  
    88    40    83 1   
    89    41    84 1   
@<TRIPOS>SUBSTRUCTURE
     1 M7R         1 TEMP              0 ****  ****    0 ROOT
