@<TRIPOS>MOLECULE
M7S
   84    89     1     0     0
SMALL
bcc


@<TRIPOS>ATOM
      1 C1          -4.2030     1.3020    -2.4790 c          1 M7S       0.927600
      2 O1          -4.8320     0.6380    -3.3300 o          1 M7S      -0.837800
      3 C2          -4.9540     1.6170    -1.1720 c3         1 M7S      -0.184700
      4 O2          -3.0460     1.7500    -2.6000 o          1 M7S      -0.837800
      5 C3          -6.1330     2.5590    -1.4760 c3         1 M7S      -0.025100
      6 O3          -1.0850    -3.0350     0.8180 os         1 M7S      -0.330900
      7 C4          -6.7840     3.1090    -0.2380 ca         1 M7S      -0.049300
      8 C5          -5.4390     0.3350    -0.4870 c3         1 M7S      -0.010100
      9 C6          -4.3120    -0.5990    -0.1500 ca         1 M7S      -0.074300
     10 C7          -3.5130    -0.3820     0.9730 ca         1 M7S      -0.081000
     11 C8          -2.4380    -1.1960     1.2900 ca         1 M7S      -0.172300
     12 C9          -2.1390    -2.2820     0.4530 ca         1 M7S       0.138100
     13 C10         -2.9230    -2.5190    -0.6700 ca         1 M7S      -0.222000
     14 C11         -3.9940    -1.6790    -0.9600 ca         1 M7S      -0.055000
     15 C12         -0.6300    -4.0640    -0.0420 c3         1 M7S       0.145400
     16 C13          0.6440    -4.6390     0.5400 c3         1 M7S      -0.084400
     17 C14          1.1820    -5.7730    -0.3210 c3         1 M7S      -0.087100
     18 C15         -1.5800    -0.9060     2.4930 c3         1 M7S       0.166300
     19 C17          3.3390    -0.9060     2.3300 ca         1 M7S      -0.092000
     20 C19          4.4950    -0.5670     1.6510 ca         1 M7S      -0.141500
     21 C22          2.0700    -0.5220     0.3420 ca         1 M7S      -0.092000
     22 C23          5.7570     0.2230    -0.3890 c6         1 M7S       0.002300
     23 C24          5.5370     0.5890    -1.8640 c6         1 M7S      -0.062400
     24 C25          6.7970    -0.9130    -0.3340 c6         1 M7S      -0.062400
     25 C26          6.3370     1.4600     0.3280 c6         1 M7S      -0.062400
     26 C27          6.8490     1.0300    -2.5170 c6         1 M7S      -0.059700
     27 C28          8.1130    -0.4710    -0.9800 c6         1 M7S      -0.059700
     28 C29          7.6530     1.8950    -0.3210 c6         1 M7S      -0.059700
     29 C30          7.8670    -0.1080    -2.4450 c6         1 M7S      -0.067400
     30 C31          7.3990     2.2550    -1.7850 c6         1 M7S      -0.067400
     31 C32          8.6640     0.7500    -0.2410 c6         1 M7S      -0.067400
     32 C51         -6.1800     4.1480     0.4710 ca         1 M7S      -0.133000
     33 C52         -6.7520     4.6500     1.6320 ca         1 M7S      -0.137000
     34 C53         -7.9440     4.1190     2.1090 ca         1 M7S      -0.155000
     35 C54         -8.5570     3.0850     1.4130 ca         1 M7S      -0.137000
     36 C55         -7.9800     2.5880     0.2500 ca         1 M7S      -0.133000
     37 C87          2.1020    -0.8620     1.6890 ca         1 M7S      -0.148600
     38 C97          0.8700    -1.2200     2.4510 c          1 M7S       0.688700
     39 C98          4.4730    -0.1940     0.3030 ca         1 M7S      -0.056300
     40 C99          3.2370    -0.1990    -0.3380 ca         1 M7S      -0.141500
     41 N99         -0.2370    -0.5440     2.0950 ns         1 M7S      -0.554900
     42 O99          0.8980    -2.0510     3.3490 o          1 M7S      -0.620100
     43 H2          -4.2700     2.1350    -0.4900 hc         1 M7S       0.037700
     44 H3          -5.7700     3.3930    -2.0860 hc         1 M7S       0.054200
     45 H3A         -6.8690     2.0240    -2.0810 hc         1 M7S       0.054200
     46 H5          -5.9790     0.5990     0.4270 hc         1 M7S       0.034700
     47 H5A         -6.1530    -0.1700    -1.1420 hc         1 M7S       0.034700
     48 H7          -3.7320     0.4580     1.6270 ha         1 M7S       0.125000
     49 H10         -2.7200    -3.3510    -1.3310 ha         1 M7S       0.125000
     50 H11         -4.5860    -1.8720    -1.8460 ha         1 M7S       0.152000
     51 H12         -1.3930    -4.8460    -0.1410 h1         1 M7S       0.028700
     52 H12A        -0.4390    -3.6650    -1.0460 h1         1 M7S       0.028700
     53 H13          1.3920    -3.8460     0.6220 hc         1 M7S       0.058200
     54 H13A         0.4510    -4.9980     1.5540 hc         1 M7S       0.058200
     55 H14          2.1000    -6.1790     0.1030 hc         1 M7S       0.029033
     56 H14A         0.4650    -6.5910    -0.4000 hc         1 M7S       0.029033
     57 H14B         1.4090    -5.4330    -1.3320 hc         1 M7S       0.029033
     58 H15         -2.0310    -0.0930     3.0670 h1         1 M7S       0.055200
     59 H15A        -1.5140    -1.7660     3.1570 h1         1 M7S       0.055200
     60 H17          3.3960    -1.1880     3.3740 ha         1 M7S       0.147500
     61 H19          5.4330    -0.5880     2.1910 ha         1 M7S       0.130000
     62 H22          1.1360    -0.5180    -0.2070 ha         1 M7S       0.147500
     63 H24          5.1280    -0.2690    -2.4080 hc         1 M7S       0.044367
     64 H24A         4.8010     1.3960    -1.9480 hc         1 M7S       0.044367
     65 H25          6.9820    -1.2140     0.7020 hc         1 M7S       0.044367
     66 H25A         6.4030    -1.7950    -0.8500 hc         1 M7S       0.044367
     67 H26          5.6090     2.2780     0.2850 hc         1 M7S       0.044367
     68 H26A         6.4990     1.2400     1.3870 hc         1 M7S       0.044367
     69 H27          6.6530     1.2840    -3.5620 hc         1 M7S       0.045700
     70 H28          8.8320    -1.2940    -0.9190 hc         1 M7S       0.045700
     71 H29          8.0400     2.7670     0.2140 hc         1 M7S       0.045700
     72 H30          7.5000    -0.9810    -2.9950 hc         1 M7S       0.036700
     73 H30A         8.8040     0.1950    -2.9230 hc         1 M7S       0.036700
     74 H31          8.3260     2.5920    -2.2600 hc         1 M7S       0.036700
     75 H31A         6.6880     3.0850    -1.8510 hc         1 M7S       0.036700
     76 H32          8.8690     0.4980     0.8050 hc         1 M7S       0.036700
     77 H32A         9.6170     1.0560    -0.6840 hc         1 M7S       0.036700
     78 H51         -5.2530     4.5740     0.1050 ha         1 M7S       0.132000
     79 H52         -6.2680     5.4590     2.1640 ha         1 M7S       0.114500
     80 H53         -8.3930     4.5100     3.0130 ha         1 M7S       0.113000
     81 H54         -9.4880     2.6660     1.7720 ha         1 M7S       0.114500
     82 H55         -8.4680     1.7840    -0.2880 ha         1 M7S       0.132000
     83 H99          3.1590     0.0520    -1.3870 ha         1 M7S       0.130000
     84 HN99        -0.1560     0.1790     1.3980 hn         1 M7S       0.320500
@<TRIPOS>BOND
     1     1     2 1   
     2     1     3 1   
     3     1     4 1   
     4     3     5 1   
     5     3     8 1   
     6     3    43 1   
     7     5     7 1   
     8     5    44 1   
     9     5    45 1   
    10     6    12 1   
    11     6    15 1   
    12     7    32 ar  
    13     7    36 ar  
    14     8     9 1   
    15     8    46 1   
    16     8    47 1   
    17     9    10 ar  
    18     9    14 ar  
    19    10    11 ar  
    20    10    48 1   
    21    11    12 ar  
    22    11    18 1   
    23    12    13 ar  
    24    13    14 ar  
    25    13    49 1   
    26    14    50 1   
    27    15    16 1   
    28    15    51 1   
    29    15    52 1   
    30    16    17 1   
    31    16    53 1   
    32    16    54 1   
    33    17    55 1   
    34    17    56 1   
    35    17    57 1   
    36    18    41 1   
    37    18    58 1   
    38    18    59 1   
    39    19    20 ar  
    40    19    37 ar  
    41    19    60 1   
    42    20    39 ar  
    43    20    61 1   
    44    21    37 ar  
    45    21    40 ar  
    46    21    62 1   
    47    22    23 1   
    48    22    24 1   
    49    22    25 1   
    50    22    39 1   
    51    23    26 1   
    52    23    63 1   
    53    23    64 1   
    54    24    27 1   
    55    24    65 1   
    56    24    66 1   
    57    25    28 1   
    58    25    67 1   
    59    25    68 1   
    60    26    29 1   
    61    26    30 1   
    62    26    69 1   
    63    27    29 1   
    64    27    31 1   
    65    27    70 1   
    66    28    30 1   
    67    28    31 1   
    68    28    71 1   
    69    29    72 1   
    70    29    73 1   
    71    30    74 1   
    72    30    75 1   
    73    31    76 1   
    74    31    77 1   
    75    32    33 ar  
    76    32    78 1   
    77    33    34 ar  
    78    33    79 1   
    79    34    35 ar  
    80    34    80 1   
    81    35    36 ar  
    82    35    81 1   
    83    36    82 1   
    84    37    38 1   
    85    38    41 1   
    86    38    42 2   
    87    39    40 ar  
    88    40    83 1   
    89    41    84 1   
@<TRIPOS>SUBSTRUCTURE
     1 M7S         1 TEMP              0 ****  ****    0 ROOT
