@<TRIPOS>MOLECULE
M7S
   84    89     1     0     0
SMALL
No Charge or Current Charge


@<TRIPOS>ATOM
      1 C1          -4.3380     1.0010    -2.7280 c          1 M7S       0.717000
      2 O1          -5.1800     0.5990    -3.5190 o          1 M7S      -0.732500
      3 C2          -4.7950     1.4450    -1.3200 c3         1 M7S      -0.184700
      4 O2          -3.1520     1.1000    -3.0060 o          1 M7S      -0.732500
      5 C3          -5.7460     2.6690    -1.4180 c3         1 M7S      -0.025100
      6 O3          -1.6730    -3.9510     0.4720 os         1 M7S      -0.354100
      7 C4          -6.0790     3.2900    -0.0640 ca         1 M7S      -0.049300
      8 C5          -5.4230     0.2650    -0.5300 c3         1 M7S      -0.010100
      9 C6          -4.4340    -0.8650    -0.2740 ca         1 M7S      -0.074300
     10 C7          -3.4890    -0.7540     0.7620 ca         1 M7S      -0.063000
     11 C8          -2.5700    -1.7920     1.0120 ca         1 M7S      -0.172300
     12 C9          -2.5930    -2.9540     0.2120 ca         1 M7S       0.138100
     13 C10         -3.5410    -3.0660    -0.8280 ca         1 M7S      -0.204000
     14 C11         -4.4560    -2.0270    -1.0670 ca         1 M7S      -0.037000
     15 C12         -1.6030    -5.1580    -0.3040 c3         1 M7S       0.168600
     16 C13         -0.4560    -6.0120     0.2680 c3         1 M7S      -0.084400
     17 C14         -0.2670    -7.3470    -0.4800 c3         1 M7S      -0.087100
     18 C15         -1.5580    -1.6390     2.1390 c3         1 M7S       0.166300
     19 C17          3.2410    -0.1610     2.4320 ca         1 M7S      -0.074000
     20 C19          4.4250     0.2410     1.7940 ca         1 M7S      -0.123500
     21 C22          2.1500    -0.3580     0.2780 ca         1 M7S      -0.074000
     22 C23          5.8350     0.8010    -0.2780 c6         1 M7S       0.002300
     23 C24          5.7570     0.8760    -1.8460 c6         1 M7S      -0.062400
     24 C25          6.9820    -0.2040     0.0890 c6         1 M7S      -0.062400
     25 C26          6.2420     2.2230     0.2420 c6         1 M7S      -0.062400
     26 C27          7.1130     1.3280    -2.4610 c6         1 M7S      -0.059700
     27 C28          8.3410     0.2490    -0.5200 c6         1 M7S      -0.059700
     28 C29          7.6010     2.6760    -0.3680 c6         1 M7S      -0.059700
     29 C30          8.2200     0.3110    -2.0680 c6         1 M7S      -0.067400
     30 C31          7.4810     2.7360    -1.9160 c6         1 M7S      -0.067400
     31 C32          8.7080     1.6580     0.0270 c6         1 M7S      -0.067400
     32 C51         -5.0950     4.0000     0.6520 ca         1 M7S      -0.115000
     33 C52         -5.3980     4.5700     1.9010 ca         1 M7S      -0.119000
     34 C53         -6.6880     4.4350     2.4410 ca         1 M7S      -0.137000
     35 C54         -7.6740     3.7300     1.7310 ca         1 M7S      -0.119000
     36 C55         -7.3710     3.1600     0.4820 ca         1 M7S      -0.115000
     37 C87          2.0830    -0.4670     1.6860 ca         1 M7S      -0.148600
     38 C97          0.8210    -0.9000     2.4080 c          1 M7S       0.621700
     39 C98          4.5000     0.3520     0.3880 ca         1 M7S      -0.056300
     40 C99          3.3380     0.0440    -0.3580 ca         1 M7S      -0.123500
     41 N99         -0.2730    -1.1820     1.6260 ns         1 M7S      -0.487900
     42 O99          0.7670    -0.9970     3.6280 o          1 M7S      -0.620100
     43 H2          -3.9020     1.7710    -0.7720 hc         1 M7S       0.037700
     44 H3          -5.2740     3.4300    -2.0540 hc         1 M7S       0.054200
     45 H3A         -6.6640     2.3730    -1.9400 hc         1 M7S       0.054200
     46 H5          -5.7950     0.6300     0.4350 hc         1 M7S       0.034700
     47 H5A         -6.3040    -0.1080    -1.0660 hc         1 M7S       0.034700
     48 H7          -3.4690     0.1450     1.3740 ha         1 M7S       0.107000
     49 H10         -3.5840    -3.9470    -1.4620 ha         1 M7S       0.107000
     50 H11         -5.1800    -2.1220    -1.8740 ha         1 M7S       0.134000
     51 H12         -2.5460    -5.7180    -0.2370 h1         1 M7S       0.028700
     52 H12A        -1.4000    -4.9310    -1.3580 h1         1 M7S       0.028700
     53 H13          0.4780    -5.4390     0.2210 hc         1 M7S       0.058200
     54 H13A        -0.6540    -6.2200     1.3270 hc         1 M7S       0.058200
     55 H14          0.5580    -7.9190    -0.0390 hc         1 M7S       0.029033
     56 H14A        -1.1770    -7.9560    -0.4220 hc         1 M7S       0.029033
     57 H14B        -0.0350    -7.1690    -1.5370 hc         1 M7S       0.029033
     58 H15         -1.9260    -0.9130     2.8770 h1         1 M7S       0.055200
     59 H15A        -1.4180    -2.5990     2.6550 h1         1 M7S       0.055200
     60 H17          3.2280    -0.2330     3.5180 ha         1 M7S       0.129500
     61 H19          5.2920     0.4660     2.4100 ha         1 M7S       0.112000
     62 H22          1.2900    -0.5820    -0.3470 ha         1 M7S       0.129500
     63 H24          5.4840    -0.1050    -2.2600 hc         1 M7S       0.044367
     64 H24A         4.9700     1.5790    -2.1540 hc         1 M7S       0.044367
     65 H25          7.0900    -0.2910     1.1780 hc         1 M7S       0.044367
     66 H25A         6.7270    -1.2100    -0.2710 hc         1 M7S       0.044367
     67 H26          5.4580     2.9520    -0.0100 hc         1 M7S       0.044367
     68 H26A         6.3210     2.2310     1.3370 hc         1 M7S       0.044367
     69 H27          7.0240     1.3690    -3.5550 hc         1 M7S       0.045700
     70 H28          9.1250    -0.4690    -0.2420 hc         1 M7S       0.045700
     71 H29          7.8630     3.6710     0.0180 hc         1 M7S       0.045700
     72 H30          7.9830    -0.6840    -2.4710 hc         1 M7S       0.036700
     73 H30A         9.1810     0.6050    -2.5130 hc         1 M7S       0.036700
     74 H31          8.4270     3.0780    -2.3580 hc         1 M7S       0.036700
     75 H31A         6.7170     3.4690    -2.2100 hc         1 M7S       0.036700
     76 H32          8.8200     1.6230     1.1200 hc         1 M7S       0.036700
     77 H32A         9.6800     1.9790    -0.3730 hc         1 M7S       0.036700
     78 H51         -4.0940     4.1100     0.2410 ha         1 M7S       0.114000
     79 H52         -4.6340     5.1160     2.4490 ha         1 M7S       0.096500
     80 H53         -6.9230     4.8750     3.4070 ha         1 M7S       0.095000
     81 H54         -8.6730     3.6240     2.1490 ha         1 M7S       0.096500
     82 H55         -8.1410     2.6140    -0.0580 ha         1 M7S       0.114000
     83 H99          3.3280     0.1090    -1.4410 ha         1 M7S       0.112000
     84 HN99        -0.1660    -1.0930     0.6260 hn         1 M7S       0.320500
@<TRIPOS>BOND
     1     1     2 1   
     2     1     3 1   
     3     1     4 1   
     4     3     5 1   
     5     3     8 1   
     6     3    43 1   
     7     5     7 1   
     8     5    44 1   
     9     5    45 1   
    10     6    12 1   
    11     6    15 1   
    12     7    32 ar  
    13     7    36 ar  
    14     8     9 1   
    15     8    46 1   
    16     8    47 1   
    17     9    10 ar  
    18     9    14 ar  
    19    10    11 ar  
    20    10    48 1   
    21    11    12 ar  
    22    11    18 1   
    23    12    13 ar  
    24    13    14 ar  
    25    13    49 1   
    26    14    50 1   
    27    15    16 1   
    28    15    51 1   
    29    15    52 1   
    30    16    17 1   
    31    16    53 1   
    32    16    54 1   
    33    17    55 1   
    34    17    56 1   
    35    17    57 1   
    36    18    41 1   
    37    18    58 1   
    38    18    59 1   
    39    19    20 ar  
    40    19    37 ar  
    41    19    60 1   
    42    20    39 ar  
    43    20    61 1   
    44    21    37 ar  
    45    21    40 ar  
    46    21    62 1   
    47    22    23 1   
    48    22    24 1   
    49    22    25 1   
    50    22    39 1   
    51    23    26 1   
    52    23    63 1   
    53    23    64 1   
    54    24    27 1   
    55    24    65 1   
    56    24    66 1   
    57    25    28 1   
    58    25    67 1   
    59    25    68 1   
    60    26    29 1   
    61    26    30 1   
    62    26    69 1   
    63    27    29 1   
    64    27    31 1   
    65    27    70 1   
    66    28    30 1   
    67    28    31 1   
    68    28    71 1   
    69    29    72 1   
    70    29    73 1   
    71    30    74 1   
    72    30    75 1   
    73    31    76 1   
    74    31    77 1   
    75    32    33 ar  
    76    32    78 1   
    77    33    34 ar  
    78    33    79 1   
    79    34    35 ar  
    80    34    80 1   
    81    35    36 ar  
    82    35    81 1   
    83    36    82 1   
    84    37    38 1   
    85    38    41 1   
    86    38    42 2   
    87    39    40 ar  
    88    40    83 1   
    89    41    84 1   
@<TRIPOS>SUBSTRUCTURE
     1 M7S         1 TEMP              0 ****  ****    0 ROOT
