@<TRIPOS>MOLECULE
M7T
   57    60     1     0     0
SMALL
bcc


@<TRIPOS>ATOM
      1 O1           6.0170     0.3980    -1.1420 o          1 M7T      -0.578100
      2 C15          5.1690    -0.1410    -0.4470 c          1 M7T       0.711700
      3 C16          5.1510    -1.6230    -0.3540 cc         1 M7T      -0.147700
      4 S            5.0900    -2.4740     1.1440 ss         1 M7T      -0.057800
      5 C19          5.2870    -3.9810     0.3640 cc         1 M7T      -0.110100
      6 C18          5.3970    -3.8410    -0.9870 cd         1 M7T      -0.158000
      7 C17          5.3360    -2.4850    -1.3970 cd         1 M7T      -0.093000
      8 N3           4.2700     0.5480     0.2930 n          1 M7T      -0.474800
      9 C14          4.3500     1.9960     0.3770 c6         1 M7T       0.083500
     10 C13          3.2480     2.6640    -0.4280 c6         1 M7T       0.074000
     11 C21          2.9720     0.0450     0.7090 c6         1 M7T       0.083500
     12 C20          1.8620     0.7120    -0.0920 c6         1 M7T       0.074000
     13 N2           1.9540     2.1580    -0.0060 n          1 M7T      -0.485800
     14 C            0.8720     2.9990    -0.0750 c          1 M7T       0.781100
     15 O            0.9820     4.1720    -0.4170 o          1 M7T      -0.636100
     16 N           -0.3330     2.4660     0.2620 ns         1 M7T      -0.576900
     17 C1          -1.5220     3.2900     0.3190 c3         1 M7T       0.153300
     18 C2          -2.7530     2.4240     0.2940 ca         1 M7T      -0.112300
     19 C12         -3.0150     1.5980    -0.7990 ca         1 M7T      -0.117500
     20 C11         -4.1450     0.8000    -0.8310 ca         1 M7T      -0.121000
     21 C5          -5.0490     0.7990     0.2320 ca         1 M7T      -0.077300
     22 C4          -4.7830     1.6150     1.3230 ca         1 M7T      -0.121000
     23 C3          -3.6500     2.4210     1.3540 ca         1 M7T      -0.117500
     24 C6          -6.2980    -0.0400     0.1810 c3         1 M7T       0.214100
     25 N1          -6.0610    -1.3580    -0.3540 n3         1 M7T      -0.718600
     26 C10         -7.2790    -2.1170    -0.5830 c5         1 M7T       0.157300
     27 C9          -6.7790    -3.5400    -0.8430 c5         1 M7T      -0.079900
     28 C8          -5.4090    -3.5970    -0.1330 c5         1 M7T      -0.079900
     29 C7          -5.2500    -2.2120     0.4950 c5         1 M7T       0.157300
     30 H1           5.3190    -4.8910     0.9430 h4         1 M7T       0.171000
     31 H2           5.5250    -4.6720    -1.6650 ha         1 M7T       0.157000
     32 H3           5.4170    -2.1600    -2.4250 ha         1 M7T       0.165000
     33 H4           4.2510     2.2780     1.4290 h1         1 M7T       0.066450
     34 H5           5.3210     2.3350     0.0290 h1         1 M7T       0.066450
     35 H6           3.2950     3.7380    -0.2640 h1         1 M7T       0.057950
     36 H7           3.4060     2.4830    -1.4980 h1         1 M7T       0.057950
     37 H8           2.9010    -1.0280     0.5540 h1         1 M7T       0.066450
     38 H9           2.8320     0.2410     1.7750 h1         1 M7T       0.066450
     39 H10          1.9330     0.3920    -1.1390 h1         1 M7T       0.057950
     40 H11          0.9160     0.3400     0.2900 h1         1 M7T       0.057950
     41 H12         -0.3610     1.6290     0.8200 hn         1 M7T       0.307500
     42 H13         -1.5350     3.9250     1.2120 h1         1 M7T       0.059200
     43 H14         -1.5240     3.9580    -0.5430 h1         1 M7T       0.059200
     44 H15         -2.3240     1.5790    -1.6340 ha         1 M7T       0.134000
     45 H16         -4.3310     0.1590    -1.6840 ha         1 M7T       0.139000
     46 H17         -5.4640     1.6230     2.1670 ha         1 M7T       0.139000
     47 H18         -3.4620     3.0460     2.2190 ha         1 M7T       0.134000
     48 H19         -6.7500    -0.0820     1.1880 h1         1 M7T       0.039200
     49 H20         -7.0330     0.4580    -0.4610 h1         1 M7T       0.039200
     50 H22         -7.9350    -2.1030     0.3030 h1         1 M7T       0.036450
     51 H23         -7.8480    -1.6980    -1.4150 h1         1 M7T       0.036450
     52 H24         -7.4800    -4.2810    -0.4590 hc         1 M7T       0.046700
     53 H25         -6.6680    -3.7240    -1.9110 hc         1 M7T       0.046700
     54 H26         -5.3570    -4.3830     0.6190 hc         1 M7T       0.046700
     55 H27         -4.6110    -3.7850    -0.8530 hc         1 M7T       0.046700
     56 H28         -4.2130    -1.8740     0.5270 h1         1 M7T       0.036450
     57 H29         -5.6250    -2.2160     1.5330 h1         1 M7T       0.036450
@<TRIPOS>BOND
     1     1     2 2   
     2     2     3 1   
     3     2     8 1   
     4     3     4 1   
     5     3     7 2   
     6     4     5 1   
     7     5     6 2   
     8     5    30 1   
     9     6     7 1   
    10     6    31 1   
    11     7    32 1   
    12     8     9 1   
    13     8    11 1   
    14     9    10 1   
    15     9    33 1   
    16     9    34 1   
    17    10    13 1   
    18    10    35 1   
    19    10    36 1   
    20    11    12 1   
    21    11    37 1   
    22    11    38 1   
    23    12    13 1   
    24    12    39 1   
    25    12    40 1   
    26    13    14 1   
    27    14    15 2   
    28    14    16 1   
    29    16    17 1   
    30    16    41 1   
    31    17    18 1   
    32    17    42 1   
    33    17    43 1   
    34    18    19 ar  
    35    18    23 ar  
    36    19    20 ar  
    37    19    44 1   
    38    20    21 ar  
    39    20    45 1   
    40    21    22 ar  
    41    21    24 1   
    42    22    23 ar  
    43    22    46 1   
    44    23    47 1   
    45    24    25 1   
    46    24    48 1   
    47    24    49 1   
    48    25    26 1   
    49    25    29 1   
    50    26    27 1   
    51    26    50 1   
    52    26    51 1   
    53    27    28 1   
    54    27    52 1   
    55    27    53 1   
    56    28    29 1   
    57    28    54 1   
    58    28    55 1   
    59    29    56 1   
    60    29    57 1   
@<TRIPOS>SUBSTRUCTURE
     1 M7T         1 TEMP              0 ****  ****    0 ROOT
