@<TRIPOS>MOLECULE
M7T
   57    60     1     0     0
SMALL
No Charge or Current Charge


@<TRIPOS>ATOM
      1 O1           5.6000     0.3690    -1.3820 o          1 M7T      -0.578100
      2 C15          4.9540    -0.2930    -0.5800 c          1 M7T       0.644700
      3 C16          5.0100    -1.7790    -0.5780 cc         1 M7T      -0.292600
      4 S            4.5380    -2.8340     0.7570 ss         1 M7T       0.232000
      5 C19          5.1330    -4.2500    -0.1030 cc         1 M7T      -0.237000
      6 C18          5.6820    -3.8980    -1.3090 cd         1 M7T      -0.140000
      7 C17          5.6300    -2.5030    -1.5710 cd         1 M7T      -0.075000
      8 N3           4.1590     0.3490     0.3990 n          1 M7T      -0.407800
      9 C14          4.3820     1.7630     0.7690 c6         1 M7T       0.083500
     10 C13          3.3260     2.7010     0.1470 c6         1 M7T       0.074000
     11 C21          2.8180    -0.1180     0.8280 c6         1 M7T       0.083500
     12 C20          1.6730     0.7800     0.2850 c6         1 M7T       0.074000
     13 N2           1.9100     2.2610     0.3310 n          1 M7T      -0.418800
     14 C            0.8690     3.1860     0.1100 c          1 M7T       0.647100
     15 O            1.0770     4.3800    -0.0400 o          1 M7T      -0.636100
     16 N           -0.4010     2.6700     0.0770 ns         1 M7T      -0.509900
     17 C1          -1.6070     3.4600    -0.1390 c3         1 M7T       0.153300
     18 C2          -2.8430     2.5740    -0.1300 ca         1 M7T      -0.112300
     19 C12         -3.3020     1.9830    -1.3230 ca         1 M7T      -0.099500
     20 C11         -4.4380     1.1560    -1.3130 ca         1 M7T      -0.103000
     21 C5          -5.1280     0.9080    -0.1100 ca         1 M7T      -0.077300
     22 C4          -4.6650     1.4960     1.0830 ca         1 M7T      -0.103000
     23 C3          -3.5290     2.3240     1.0730 ca         1 M7T      -0.099500
     24 C6          -6.3590     0.0060    -0.1040 c3         1 M7T       0.214100
     25 N1          -6.0310    -1.4250    -0.2880 n3         1 M7T      -0.718600
     26 C10         -7.1930    -2.3350    -0.3260 c5         1 M7T       0.157300
     27 C9          -6.4970    -3.7170    -0.4310 c5         1 M7T      -0.079900
     28 C8          -5.1430    -3.5130     0.3230 c5         1 M7T      -0.079900
     29 C7          -5.1790    -2.0240     0.7600 c5         1 M7T       0.157300
     30 H1           5.0420    -5.2280     0.3510 h4         1 M7T       0.153000
     31 H2           6.1260    -4.6150    -1.9930 ha         1 M7T       0.139000
     32 H3           6.0460    -2.0550    -2.4710 ha         1 M7T       0.147000
     33 H4           4.3330     1.8500     1.8640 h1         1 M7T       0.066450
     34 H5           5.3880     2.0890     0.4690 h1         1 M7T       0.066450
     35 H6           3.4610     3.7040     0.5770 h1         1 M7T       0.057950
     36 H7           3.5220     2.7820    -0.9310 h1         1 M7T       0.057950
     37 H8           2.6100    -1.1340     0.4760 h1         1 M7T       0.066450
     38 H9           2.7810    -0.1290     1.9260 h1         1 M7T       0.066450
     39 H10          1.4900     0.5030    -0.7630 h1         1 M7T       0.057950
     40 H11          0.7640     0.5270     0.8480 h1         1 M7T       0.057950
     41 H12         -0.4990     1.6740     0.2110 hn         1 M7T       0.307500
     42 H13         -1.6860     4.2190     0.6510 h1         1 M7T       0.059200
     43 H14         -1.5280     3.9800    -1.1030 h1         1 M7T       0.059200
     44 H15         -2.7760     2.1630    -2.2590 ha         1 M7T       0.116000
     45 H16         -4.7830     0.7000    -2.2380 ha         1 M7T       0.121000
     46 H17         -5.1850     1.3090     2.0200 ha         1 M7T       0.121000
     47 H18         -3.1810     2.7690     2.0030 ha         1 M7T       0.116000
     48 H19         -6.9040     0.1480     0.8400 h1         1 M7T       0.039200
     49 H20         -7.0300     0.3360    -0.9090 h1         1 M7T       0.039200
     50 H22         -7.7890    -2.2600     0.5940 h1         1 M7T       0.036450
     51 H23         -7.8550    -2.1390    -1.1810 h1         1 M7T       0.036450
     52 H24         -7.1070    -4.5130     0.0100 hc         1 M7T       0.046700
     53 H25         -6.3210    -3.9880    -1.4790 hc         1 M7T       0.046700
     54 H26         -5.0370    -4.1830     1.1830 hc         1 M7T       0.046700
     55 H27         -4.2950    -3.7060    -0.3440 hc         1 M7T       0.046700
     56 H28         -4.1740    -1.5820     0.7940 h1         1 M7T       0.036450
     57 H29         -5.6350    -1.9150     1.7550 h1         1 M7T       0.036450
@<TRIPOS>BOND
     1     1     2 2   
     2     2     3 1   
     3     2     8 1   
     4     3     4 1   
     5     3     7 2   
     6     4     5 1   
     7     5     6 2   
     8     5    30 1   
     9     6     7 1   
    10     6    31 1   
    11     7    32 1   
    12     8     9 1   
    13     8    11 1   
    14     9    10 1   
    15     9    33 1   
    16     9    34 1   
    17    10    13 1   
    18    10    35 1   
    19    10    36 1   
    20    11    12 1   
    21    11    37 1   
    22    11    38 1   
    23    12    13 1   
    24    12    39 1   
    25    12    40 1   
    26    13    14 1   
    27    14    15 2   
    28    14    16 1   
    29    16    17 1   
    30    16    41 1   
    31    17    18 1   
    32    17    42 1   
    33    17    43 1   
    34    18    19 ar  
    35    18    23 ar  
    36    19    20 ar  
    37    19    44 1   
    38    20    21 ar  
    39    20    45 1   
    40    21    22 ar  
    41    21    24 1   
    42    22    23 ar  
    43    22    46 1   
    44    23    47 1   
    45    24    25 1   
    46    24    48 1   
    47    24    49 1   
    48    25    26 1   
    49    25    29 1   
    50    26    27 1   
    51    26    50 1   
    52    26    51 1   
    53    27    28 1   
    54    27    52 1   
    55    27    53 1   
    56    28    29 1   
    57    28    54 1   
    58    28    55 1   
    59    29    56 1   
    60    29    57 1   
@<TRIPOS>SUBSTRUCTURE
     1 M7T         1 TEMP              0 ****  ****    0 ROOT
