@<TRIPOS>MOLECULE
M7V
   30    30     1     0     0
SMALL
No Charge or Current Charge


@<TRIPOS>ATOM
      1 C10         -4.5540    -2.0670     0.7000 c3         1 M7V      -0.082100
      2 C01          0.7270    -0.1370    -0.6470 cx         1 M7V      -0.060700
      3 C02          0.5810     0.8950    -1.7470 cx         1 M7V      -0.127400
      4 C03         -0.4790     0.7990    -0.6580 cx         1 M7V      -0.216000
      5 C04         -1.8530     0.2350    -1.0490 c3         1 M7V      -0.010400
      6 C05         -0.5410     1.9410     0.3580 c          1 M7V       0.769000
      7 C06          1.8630    -0.1020     0.4030 c3         1 M7V       0.062500
      8 C07          2.8030    -1.3700     0.2120 c          1 M7V       0.692000
      9 C08         -2.5360    -0.6030     0.0560 c3         1 M7V      -0.078400
     10 C09         -3.8700    -1.2340    -0.4010 c3         1 M7V      -0.075400
     11 N01          2.5810     1.2260     0.4630 n8         1 M7V      -0.979200
     12 O01          3.6570    -1.3450    -0.6670 o          1 M7V      -0.763000
     13 O02          2.6690    -2.3180     0.9750 o          1 M7V      -0.763000
     14 O03         -0.6270     3.0850    -0.0720 o          1 M7V      -0.757500
     15 O04         -0.6820     1.6660     1.5430 o          1 M7V      -0.757500
     16 H1          -5.4930    -2.4930     0.3290 hc         1 M7V       0.015367
     17 H2          -3.9060    -2.8920     1.0210 hc         1 M7V       0.015367
     18 H3          -4.7810    -1.4440     1.5730 hc         1 M7V       0.015367
     19 H6           0.3330     0.5300    -2.7410 hc         1 M7V       0.045200
     20 H7          -2.5170     1.0610    -1.3340 hc         1 M7V       0.003200
     21 H8          -1.7530    -0.3950    -1.9410 hc         1 M7V       0.003200
     22 H9           1.3880    -0.2400     1.3840 h1         1 M7V       0.045700
     23 H10         -1.8540    -1.3990     0.3790 hc         1 M7V       0.059700
     24 H11         -2.7260     0.0300     0.9310 hc         1 M7V       0.059700
     25 H12         -3.6890    -1.8760    -1.2710 hc         1 M7V       0.017200
     26 H13         -4.5560    -0.4410    -0.7240 hc         1 M7V       0.017200
     27 H14          3.3280     1.1650     1.1640 hn         1 M7V       0.375500
     28 H15          3.0900     1.3470    -0.4190 hn         1 M7V       0.375500
     29 H4           0.5020    -1.1640    -0.9260 hc         1 M7V       0.054700
     30 H5           1.2260     1.7690    -1.7480 hc         1 M7V       0.045200
@<TRIPOS>BOND
     1     1    10 1   
     2     1    16 1   
     3     1    17 1   
     4     1    18 1   
     5     2     3 1   
     6     2     4 1   
     7     2     7 1   
     8     2    29 1   
     9     3     4 1   
    10     3    19 1   
    11     3    30 1   
    12     4     5 1   
    13     4     6 1   
    14     5     9 1   
    15     5    20 1   
    16     5    21 1   
    17     6    14 1   
    18     6    15 1   
    19     7     8 1   
    20     7    11 1   
    21     7    22 1   
    22     8    12 1   
    23     8    13 1   
    24     9    10 1   
    25     9    23 1   
    26     9    24 1   
    27    10    25 1   
    28    10    26 1   
    29    11    27 1   
    30    11    28 1   
@<TRIPOS>SUBSTRUCTURE
     1 M7V         1 TEMP              0 ****  ****    0 ROOT
