@<TRIPOS>MOLECULE
M7V
   30    30     1     0     0
SMALL
abcg2


@<TRIPOS>ATOM
      1 C10         -4.5710    -1.9190     0.7690 c3         1 M7V      -0.082100
      2 C01          0.7160    -0.2420    -0.6740 cx         1 M7V      -0.060700
      3 C02          0.5770     0.7690    -1.7810 cx         1 M7V      -0.127400
      4 C03         -0.4370     0.7050    -0.6820 cx         1 M7V      -0.216000
      5 C04         -1.7960     0.1330    -1.0470 c3         1 M7V      -0.010400
      6 C05         -0.5260     1.8350     0.3410 c          1 M7V       0.769000
      7 C06          1.8480    -0.1370     0.3390 c3         1 M7V       0.062500
      8 C07          2.9330    -1.1840    -0.0180 c          1 M7V       0.692000
      9 C08         -2.5060    -0.6150     0.0760 c3         1 M7V      -0.078400
     10 C09         -3.8610    -1.1670    -0.3490 c3         1 M7V      -0.075400
     11 N01          2.3660     1.2190     0.4430 n8         1 M7V      -0.979200
     12 O01          4.0620    -0.7620    -0.3480 o          1 M7V      -0.763000
     13 O02          2.5850    -2.3810     0.0400 o          1 M7V      -0.763000
     14 O03         -0.6300     2.9980    -0.1020 o          1 M7V      -0.757500
     15 O04         -0.5770     1.5030     1.5440 o          1 M7V      -0.757500
     16 H1          -5.5510    -2.2810     0.4550 hc         1 M7V       0.015367
     17 H2          -3.9890    -2.7850     1.0910 hc         1 M7V       0.015367
     18 H3          -4.7180    -1.2820     1.6430 hc         1 M7V       0.015367
     19 H6           0.2950     0.4250    -2.7710 hc         1 M7V       0.045200
     20 H7          -2.4400     0.9450    -1.4070 hc         1 M7V       0.003200
     21 H8          -1.6740    -0.5480    -1.8980 hc         1 M7V       0.003200
     22 H9           1.4280    -0.4270     1.3060 h1         1 M7V       0.045700
     23 H10         -1.8710    -1.4400     0.4170 hc         1 M7V       0.059700
     24 H11         -2.6320     0.0440     0.9370 hc         1 M7V       0.059700
     25 H12         -3.7320    -1.8320    -1.2080 hc         1 M7V       0.017200
     26 H13         -4.4940    -0.3440    -0.6980 hc         1 M7V       0.017200
     27 H14          2.5070     1.4520     1.4150 hn         1 M7V       0.375500
     28 H15          3.2870     1.2120     0.0190 hn         1 M7V       0.375500
     29 H4           0.4680    -1.2690    -0.9300 hc         1 M7V       0.054700
     30 H5           1.2660     1.6040    -1.7740 hc         1 M7V       0.045200
@<TRIPOS>BOND
     1     1    10 1   
     2     1    16 1   
     3     1    17 1   
     4     1    18 1   
     5     2     3 1   
     6     2     4 1   
     7     2     7 1   
     8     2    29 1   
     9     3     4 1   
    10     3    19 1   
    11     3    30 1   
    12     4     5 1   
    13     4     6 1   
    14     5     9 1   
    15     5    20 1   
    16     5    21 1   
    17     6    14 1   
    18     6    15 1   
    19     7     8 1   
    20     7    11 1   
    21     7    22 1   
    22     8    12 1   
    23     8    13 1   
    24     9    10 1   
    25     9    23 1   
    26     9    24 1   
    27    10    25 1   
    28    10    26 1   
    29    11    27 1   
    30    11    28 1   
@<TRIPOS>SUBSTRUCTURE
     1 M7V         1 TEMP              0 ****  ****    0 ROOT
