@<TRIPOS>MOLECULE
M7W
   51    53     1     0     0
SMALL
bcc


@<TRIPOS>ATOM
      1 C2          -5.8890     0.7050     1.4830 ca         1 M7W      -0.272300
      2 C4          -4.8210    -0.4990    -0.3020 ca         1 M7W      -0.271600
      3 C5          -3.8360    -1.5150    -0.8020 c3         1 M7W       0.162300
      4 C6          -1.4750    -2.0380    -0.4940 c          1 M7W       0.780100
      5 O2           7.9740     2.5840     0.4040 o          1 M7W      -0.537100
      6 C1          -6.6650     1.3450     0.5040 ca         1 M7W       0.655600
      7 C3          -4.9650    -0.2200     1.0630 ca         1 M7W      -0.047000
      8 O1          -1.6830    -3.2160    -0.7630 o          1 M7W      -0.635100
      9 C14          8.9180     0.4070     0.3570 c3         1 M7W      -0.195100
     10 C12          6.4010     0.8500     0.2350 ca         1 M7W      -0.226600
     11 C11          5.3100     1.7200     0.1980 ca         1 M7W      -0.039500
     12 C10          4.0140     1.2580     0.1020 ca         1 M7W      -0.215500
     13 C16          6.1260    -0.5190     0.1660 ca         1 M7W      -0.039500
     14 C15          4.8370    -0.9970     0.0740 ca         1 M7W      -0.215500
     15 C9           3.7330    -0.1220     0.0480 ca         1 M7W       0.210600
     16 N2           2.4450    -0.6030     0.0020 nh         1 M7W      -0.667000
     17 C8           1.3270     0.3190     0.0430 c6         1 M7W       0.198300
     18 C7           0.0700    -0.3740     0.5390 c6         1 M7W       0.091500
     19 C18          2.1470    -1.8130    -0.7480 c6         1 M7W       0.198300
     20 C17          0.8940    -2.4930    -0.2340 c6         1 M7W       0.091500
     21 N1          -0.2150    -1.5620    -0.2400 n          1 M7W      -0.486800
     22 N           -2.4890    -1.1290    -0.4350 ns         1 M7W      -0.573900
     23 C19         -5.6350     0.2010    -1.1680 ca         1 M7W       0.455200
     24 N3          -6.5400     1.1030    -0.7810 nb         1 M7W      -0.758000
     25 O           -7.5620     2.2370     0.9280 os         1 M7W      -0.436100
     26 C           -8.3590     2.8970    -0.0450 c3         1 M7W       0.135700
     27 H1          -6.0230     0.9380     2.5310 ha         1 M7W       0.157000
     28 H2          -4.0520    -2.4870    -0.3590 h1         1 M7W       0.060200
     29 H3          -3.9480    -1.6290    -1.8850 h1         1 M7W       0.060200
     30 H4          -4.3480    -0.7340     1.7900 ha         1 M7W       0.146000
     31 H5           9.8640     0.9350     0.4540 hc         1 M7W       0.059033
     32 H6           8.8220    -0.2950     1.1870 hc         1 M7W       0.059033
     33 H7           8.9420    -0.1830    -0.5600 hc         1 M7W       0.059033
     34 H8           5.4750     2.7900     0.2310 ha         1 M7W       0.138500
     35 H9           3.2200     1.9880     0.0480 ha         1 M7W       0.132500
     36 H10          6.9280    -1.2450     0.1930 ha         1 M7W       0.138500
     37 H11          4.6950    -2.0680     0.0500 ha         1 M7W       0.132500
     38 H12          1.5380     1.1270     0.7410 h1         1 M7W       0.050700
     39 H13          1.1390     0.7650    -0.9430 h1         1 M7W       0.050700
     40 H14          0.2000    -0.6450     1.5940 h1         1 M7W       0.057700
     41 H15         -0.7420     0.3470     0.4940 h1         1 M7W       0.057700
     42 H16          2.0200    -1.5740    -1.8120 h1         1 M7W       0.050700
     43 H17          2.9640    -2.5230    -0.6710 h1         1 M7W       0.050700
     44 H18          0.6700    -3.3410    -0.8750 h1         1 M7W       0.057700
     45 H19          1.0710    -2.8770     0.7790 h1         1 M7W       0.057700
     46 H20         -2.2730    -0.1540    -0.5640 hn         1 M7W       0.306500
     47 H21         -5.5630     0.0320    -2.2380 h4         1 M7W       0.019100
     48 H22         -9.0240     3.5530     0.5110 h1         1 M7W       0.047700
     49 H23         -7.7530     3.4930    -0.7280 h1         1 M7W       0.047700
     50 H24         -8.9520     2.1940    -0.6300 h1         1 M7W       0.047700
     51 C13          7.7720     1.3850     0.3380 c          1 M7W       0.591700
@<TRIPOS>BOND
     1     1     6 ar  
     2     1     7 ar  
     3     1    27 1   
     4     2     3 1   
     5     2     7 ar  
     6     2    23 ar  
     7     3    22 1   
     8     3    28 1   
     9     3    29 1   
    10     4     8 2   
    11     4    21 1   
    12     4    22 1   
    13     5    51 2   
    14     6    24 ar  
    15     6    25 1   
    16     7    30 1   
    17     9    31 1   
    18     9    32 1   
    19     9    33 1   
    20     9    51 1   
    21    10    11 ar  
    22    10    13 ar  
    23    10    51 1   
    24    11    12 ar  
    25    11    34 1   
    26    12    15 ar  
    27    12    35 1   
    28    13    14 ar  
    29    13    36 1   
    30    14    15 ar  
    31    14    37 1   
    32    15    16 1   
    33    16    17 1   
    34    16    19 1   
    35    17    18 1   
    36    17    38 1   
    37    17    39 1   
    38    18    21 1   
    39    18    40 1   
    40    18    41 1   
    41    19    20 1   
    42    19    42 1   
    43    19    43 1   
    44    20    21 1   
    45    20    44 1   
    46    20    45 1   
    47    22    46 1   
    48    23    24 ar  
    49    23    47 1   
    50    25    26 1   
    51    26    48 1   
    52    26    49 1   
    53    26    50 1   
@<TRIPOS>SUBSTRUCTURE
     1 M7W         1 TEMP              0 ****  ****    0 ROOT
