@<TRIPOS>MOLECULE
M7W
   51    53     1     0     0
SMALL
No Charge or Current Charge


@<TRIPOS>ATOM
      1 C2          -5.7340     0.7800     1.7830 ca         1 M7W      -0.189000
      2 C4          -4.8780    -0.6980     0.0890 ca         1 M7W      -0.206300
      3 C5          -3.9720    -1.8260    -0.3680 c3         1 M7W       0.162300
      4 C6          -1.5370    -2.1770    -0.8190 c          1 M7W       0.646100
      5 O2           8.1760     2.4590     0.3420 o          1 M7W      -0.537100
      6 C1          -6.5670     1.3550     0.8130 ca         1 M7W       0.590300
      7 C3          -4.8710    -0.2660     1.4250 ca         1 M7W      -0.029000
      8 O1          -1.7010    -3.3490    -1.1190 o          1 M7W      -0.635100
      9 C14          8.8270     0.3920     1.3380 c3         1 M7W      -0.195100
     10 C12          6.4220     0.8390     0.3590 ca         1 M7W      -0.226600
     11 C11          5.5010     1.7010    -0.2770 ca         1 M7W      -0.021500
     12 C10          4.1930     1.2720    -0.5570 ca         1 M7W      -0.197500
     13 C16          5.9970    -0.4640     0.7070 ca         1 M7W      -0.021500
     14 C15          4.6860    -0.8830     0.4220 ca         1 M7W      -0.197500
     15 C9           3.7740    -0.0240    -0.2100 ca         1 M7W       0.349000
     16 N2           2.4630    -0.4790    -0.4810 nh         1 M7W      -0.805400
     17 C8           1.3250     0.4660    -0.6040 c6         1 M7W       0.198300
     18 C7          -0.0330    -0.2040    -0.2500 c6         1 M7W       0.091500
     19 C18          2.2660    -1.6710    -1.3440 c6         1 M7W       0.198300
     20 C17          0.9530    -2.4230    -0.9960 c6         1 M7W       0.091500
     21 N1          -0.2670    -1.5680    -0.8350 n          1 M7W      -0.419800
     22 N           -2.5880    -1.3770    -0.4490 ns         1 M7W      -0.506900
     23 C19         -5.7470    -0.0670    -0.8200 ca         1 M7W       0.389900
     24 N3          -6.5780     0.9410    -0.4730 nb         1 M7W      -0.758000
     25 O           -7.3970     2.3780     1.2100 os         1 M7W      -0.459300
     26 C           -8.2860     3.0240     0.2770 c3         1 M7W       0.158900
     27 H1          -5.7630     1.1480     2.8040 ha         1 M7W       0.139000
     28 H2          -4.0360    -2.6620     0.3410 h1         1 M7W       0.060200
     29 H3          -4.2880    -2.1910    -1.3550 h1         1 M7W       0.060200
     30 H4          -4.2160    -0.7260     2.1640 ha         1 M7W       0.128000
     31 H5           9.8060     0.8610     1.4900 hc         1 M7W       0.059033
     32 H6           8.4000     0.0440     2.2840 hc         1 M7W       0.059033
     33 H7           8.9130    -0.5320     0.7560 hc         1 M7W       0.059033
     34 H8           5.7950     2.7100    -0.5620 ha         1 M7W       0.120500
     35 H9           3.5130     1.9540    -1.0570 ha         1 M7W       0.114500
     36 H10          6.6660    -1.1650     1.2000 ha         1 M7W       0.120500
     37 H11          4.3740    -1.8840     0.7050 ha         1 M7W       0.114500
     38 H12          1.4650     1.3320     0.0600 h1         1 M7W       0.050700
     39 H13          1.2710     0.8490    -1.6340 h1         1 M7W       0.050700
     40 H14         -0.0960    -0.2910     0.8440 h1         1 M7W       0.057700
     41 H15         -0.8300     0.4830    -0.5670 h1         1 M7W       0.057700
     42 H16          2.2240    -1.3590    -2.3990 h1         1 M7W       0.050700
     43 H17          3.1070    -2.3720    -1.2510 h1         1 M7W       0.050700
     44 H18          0.7750    -3.1770    -1.7750 h1         1 M7W       0.057700
     45 H19          1.1100    -2.9680    -0.0550 h1         1 M7W       0.057700
     46 H20         -2.3790    -0.4170    -0.2170 hn         1 M7W       0.306500
     47 H21         -5.7800    -0.3770    -1.8640 h4         1 M7W       0.019100
     48 H22         -8.8620     3.8100     0.7810 h1         1 M7W       0.047700
     49 H23         -7.7230     3.4900    -0.5430 h1         1 M7W       0.047700
     50 H24         -8.9960     2.3050    -0.1510 h1         1 M7W       0.047700
     51 C13          7.8280     1.3250     0.6500 c          1 M7W       0.591700
@<TRIPOS>BOND
     1     1     6 ar  
     2     1     7 ar  
     3     1    27 1   
     4     2     3 1   
     5     2     7 ar  
     6     2    23 ar  
     7     3    22 1   
     8     3    28 1   
     9     3    29 1   
    10     4     8 2   
    11     4    21 1   
    12     4    22 1   
    13     5    51 2   
    14     6    24 ar  
    15     6    25 1   
    16     7    30 1   
    17     9    31 1   
    18     9    32 1   
    19     9    33 1   
    20     9    51 1   
    21    10    11 ar  
    22    10    13 ar  
    23    10    51 1   
    24    11    12 ar  
    25    11    34 1   
    26    12    15 ar  
    27    12    35 1   
    28    13    14 ar  
    29    13    36 1   
    30    14    15 ar  
    31    14    37 1   
    32    15    16 1   
    33    16    17 1   
    34    16    19 1   
    35    17    18 1   
    36    17    38 1   
    37    17    39 1   
    38    18    21 1   
    39    18    40 1   
    40    18    41 1   
    41    19    20 1   
    42    19    42 1   
    43    19    43 1   
    44    20    21 1   
    45    20    44 1   
    46    20    45 1   
    47    22    46 1   
    48    23    24 ar  
    49    23    47 1   
    50    25    26 1   
    51    26    48 1   
    52    26    49 1   
    53    26    50 1   
@<TRIPOS>SUBSTRUCTURE
     1 M7W         1 TEMP              0 ****  ****    0 ROOT
