@<TRIPOS>MOLECULE
M7X
   31    32     1     0     0
SMALL
No Charge or Current Charge


@<TRIPOS>ATOM
      1 N1           8.3500     0.5510    21.1870 ns         1 M7X      -0.142000
      2 C4           7.5720     1.0230    20.0910 ca         1 M7X      -0.072000
      3 C5           9.4230     1.1100    21.8710 c          1 M7X       0.606100
      4 C6           9.9810     0.2330    23.0000 c3         1 M7X      -0.109100
      5 C7          11.2490    -0.4860    22.5500 ca         1 M7X      -0.079300
      6 C8          12.5090     0.1250    22.7110 ca         1 M7X      -0.085000
      7 C10         13.5940    -1.8100    21.7060 ca         1 M7X      -0.094000
      8 C13          6.5370     0.1970    19.6150 ca         1 M7X      -0.137000
      9 C11         12.3410    -2.4220    21.5430 ca         1 M7X       0.125000
     10 C9          13.6780    -0.5340    22.2910 ca         1 M7X      -0.098000
     11 C12         11.1720    -1.7640    21.9620 ca         1 M7X      -0.100000
     12 O            9.9100     2.2030    21.6060 o          1 M7X      -0.573100
     13 C3           7.7800     2.2720    19.4520 ca         1 M7X       0.318900
     14 N            7.0310     2.7050    18.4080 nb         1 M7X      -0.642000
     15 C2           6.0400     1.8990    17.9640 ca         1 M7X       0.309900
     16 C1           5.7540     0.6410    18.5330 ca         1 M7X      -0.099300
     17 C            4.6280    -0.2250    17.9890 c3         1 M7X      -0.043800
     18 H1           8.0710    -0.3610    21.5260 hn         1 M7X       0.149000
     19 H2          10.2070     0.8740    23.8600 hc         1 M7X       0.072700
     20 H3           9.2320    -0.5120    23.2940 hc         1 M7X       0.072700
     21 H4          12.5830     1.1140    23.1590 ha         1 M7X       0.127000
     22 H5          14.4960    -2.3220    21.3810 ha         1 M7X       0.133000
     23 H6           6.3420    -0.7700    20.0740 ha         1 M7X       0.112000
     24 H7          14.6470    -0.0570    22.4180 ha         1 M7X       0.123000
     25 H8          10.2090    -2.2510    21.8280 ha         1 M7X       0.122000
     26 H9           8.5620     2.9580    19.7700 h4         1 M7X       0.055100
     27 H10          5.4570     2.2740    17.1230 h4         1 M7X       0.020100
     28 H11          5.0240    -1.0240    17.3510 hc         1 M7X       0.046367
     29 H12          4.0620    -0.6950    18.8030 hc         1 M7X       0.046367
     30 H13          3.9210     0.3620    17.3910 hc         1 M7X       0.046367
     31 Cl          12.2340    -4.0170    20.8090 cl         1 M7X      -0.211000
@<TRIPOS>BOND
     1     1     2 1   
     2     1     3 1   
     3     1    18 1   
     4     2     8 ar  
     5     2    13 ar  
     6     3     4 1   
     7     3    12 2   
     8     4     5 1   
     9     4    19 1   
    10     4    20 1   
    11     5     6 ar  
    12     5    11 ar  
    13     6    10 ar  
    14     6    21 1   
    15     7     9 ar  
    16     7    10 ar  
    17     7    22 1   
    18     8    16 ar  
    19     8    23 1   
    20     9    11 ar  
    21     9    31 1   
    22    10    24 1   
    23    11    25 1   
    24    13    14 ar  
    25    13    26 1   
    26    14    15 ar  
    27    15    16 ar  
    28    15    27 1   
    29    16    17 1   
    30    17    28 1   
    31    17    29 1   
    32    17    30 1   
@<TRIPOS>SUBSTRUCTURE
     1 M7X         1 TEMP              0 ****  ****    0 ROOT
