@<TRIPOS>MOLECULE
M7X
   31    32     1     0     0
SMALL
abcg2


@<TRIPOS>ATOM
      1 N1           8.3330     0.5220    21.2550 ns         1 M7X      -0.142000
      2 C4           7.6140     0.9920    20.1450 ca         1 M7X      -0.072000
      3 C5           9.3650     1.1060    21.9230 c          1 M7X       0.606100
      4 C6           9.9550     0.2450    23.0360 c3         1 M7X      -0.109100
      5 C7          11.1990    -0.4610    22.5470 ca         1 M7X      -0.079300
      6 C8          12.4560     0.1230    22.6950 ca         1 M7X      -0.085000
      7 C10         13.4920    -1.7480    21.5720 ca         1 M7X      -0.094000
      8 C13          6.5820     0.1900    19.6600 ca         1 M7X      -0.137000
      9 C11         12.2360    -2.3200    21.4310 ca         1 M7X       0.125000
     10 C9          13.5910    -0.5170    22.2110 ca         1 M7X      -0.098000
     11 C12         11.0920    -1.6960    21.9080 ca         1 M7X      -0.100000
     12 O            9.8210     2.2100    21.6540 o          1 M7X      -0.573100
     13 C3           7.8680     2.2060    19.4950 ca         1 M7X       0.318900
     14 N            7.1540     2.6050    18.4420 nb         1 M7X      -0.642000
     15 C2           6.1700     1.8260    17.9910 ca         1 M7X       0.309900
     16 C1           5.8360     0.5980    18.5630 ca         1 M7X      -0.099300
     17 C            4.7220    -0.2460    18.0130 c3         1 M7X      -0.043800
     18 H1           8.0440    -0.3840    21.5930 hn         1 M7X       0.149000
     19 H2          10.2030     0.9140    23.8590 hc         1 M7X       0.072700
     20 H3           9.2240    -0.4820    23.3890 hc         1 M7X       0.072700
     21 H4          12.5440     1.0790    23.1940 ha         1 M7X       0.127000
     22 H5          14.3710    -2.2530    21.1960 ha         1 M7X       0.133000
     23 H6           6.3670    -0.7560    20.1460 ha         1 M7X       0.112000
     24 H7          14.5650    -0.0590    22.3340 ha         1 M7X       0.123000
     25 H8          10.1260    -2.1690    21.7860 ha         1 M7X       0.122000
     26 H9           8.6580     2.8560    19.8380 h4         1 M7X       0.055100
     27 H10          5.6160     2.1900    17.1330 h4         1 M7X       0.020100
     28 H11          5.1030    -1.2020    17.6480 hc         1 M7X       0.046367
     29 H12          3.9800    -0.4640    18.7850 hc         1 M7X       0.046367
     30 H13          4.2210     0.2590    17.1870 hc         1 M7X       0.046367
     31 CL          12.0880    -3.8760    20.6360 cl         1 M7X      -0.211000
@<TRIPOS>BOND
     1     1     2 1   
     2     1     3 1   
     3     1    18 1   
     4     2     8 ar  
     5     2    13 ar  
     6     3     4 1   
     7     3    12 2   
     8     4     5 1   
     9     4    19 1   
    10     4    20 1   
    11     5     6 ar  
    12     5    11 ar  
    13     6    10 ar  
    14     6    21 1   
    15     7     9 ar  
    16     7    10 ar  
    17     7    22 1   
    18     8    16 ar  
    19     8    23 1   
    20     9    11 ar  
    21     9    31 1   
    22    10    24 1   
    23    11    25 1   
    24    13    14 ar  
    25    13    26 1   
    26    14    15 ar  
    27    15    16 ar  
    28    15    27 1   
    29    16    17 1   
    30    17    28 1   
    31    17    29 1   
    32    17    30 1   
@<TRIPOS>SUBSTRUCTURE
     1 M7X         1 TEMP              0 ****  ****    0 ROOT
