@<TRIPOS>MOLECULE
M7Y
   50    52     1     0     0
SMALL
No Charge or Current Charge


@<TRIPOS>ATOM
      1 C4          -0.6470    -2.1030     0.0960 ca         1 M7Y      -0.005000
      2 C5          -1.8470    -1.4150     0.4140 ca         1 M7Y      -0.065800
      3 C6          -3.0040    -2.1640     0.7210 ca         1 M7Y      -0.090000
      4 C7          -1.9110     0.0790     0.4070 ce         1 M7Y      -0.054200
      5 C8          -3.0030     0.8770     0.2120 cf         1 M7Y      -0.322200
      6 C17          1.1400    -1.1680    -1.5110 c5         1 M7Y       0.115400
      7 C21          3.3530     0.6970     1.0070 c5         1 M7Y       0.121700
      8 C22          4.7620     0.7520     0.3140 c5         1 M7Y      -0.098400
      9 C24          4.0170     3.0050     0.5650 c5         1 M7Y      -0.081400
     10 C1          -2.9660    -3.5670     0.7410 ca         1 M7Y      -0.114000
     11 C2          -1.7680    -4.2410     0.4680 ca         1 M7Y      -0.090000
     12 C3          -0.6100    -3.5090     0.1610 ca         1 M7Y      -0.115000
     13 C9          -2.9550     2.3600     0.2160 c          1 M7Y       0.605300
     14 N10         -4.1750     2.9820    -0.0100 ns         1 M7Y      -0.383400
     15 O11         -4.3440     4.4030     0.2150 oh         1 M7Y      -0.429100
     16 O12         -1.9180     2.9840     0.3950 o          1 M7Y      -0.575100
     17 N13          0.5770    -1.3940    -0.1480 n          1 M7Y      -0.253400
     18 C14          1.3590    -0.8420     0.8550 c          1 M7Y       0.600000
     19 N15          2.4410    -0.2300     0.2680 n          1 M7Y      -0.408800
     20 C16          2.4270    -0.2870    -1.2120 c5         1 M7Y       0.086000
     21 C19          1.5230    -2.5020    -2.1990 c3         1 M7Y      -0.103100
     22 O20          1.1200    -0.8670     2.0540 o          1 M7Y      -0.567000
     23 C23          4.7640     2.1050    -0.4480 c5         1 M7Y      -0.081400
     24 C25          2.7620     2.1390     0.8390 c5         1 M7Y      -0.098400
     25 H1          -3.9360    -1.6610     0.9620 ha         1 M7Y       0.114000
     26 H2          -0.9530     0.5750     0.5700 ha         1 M7Y       0.212000
     27 H3          -3.9730     0.4210     0.0280 ha         1 M7Y       0.178000
     28 H4           3.4500     0.4120     2.0640 h1         1 M7Y       0.083700
     29 H5           5.5450     0.7600     1.0820 hc         1 M7Y       0.052450
     30 H6           4.9910    -0.1070    -0.3260 hc         1 M7Y       0.052450
     31 H7           4.6060     3.1730     1.4760 hc         1 M7Y       0.044450
     32 H8           3.7650     3.9860     0.1480 hc         1 M7Y       0.044450
     33 H9          -3.8640    -4.1320     0.9840 ha         1 M7Y       0.116000
     34 H10         -1.7320    -5.3280     0.5020 ha         1 M7Y       0.118000
     35 H11          0.3210    -4.0380    -0.0260 ha         1 M7Y       0.124000
     36 H12         -5.0260     2.4220    -0.0070 hn         1 M7Y       0.330500
     37 H13         -4.7730     4.7190    -0.6150 ho         1 M7Y       0.445000
     38 H14          3.3330    -0.7590    -1.6110 h1         1 M7Y       0.054700
     39 H15          2.3400     0.7120    -1.6560 h1         1 M7Y       0.054700
     40 H16          0.5670    -0.2000    -3.3990 hc         1 M7Y       0.047867
     41 H17         -0.7800    -1.0010    -2.5740 hc         1 M7Y       0.047867
     42 H18         -0.1600     0.5420    -1.9680 hc         1 M7Y       0.047867
     43 H19          2.2050    -3.0890    -1.5710 hc         1 M7Y       0.047867
     44 H20          0.6400    -3.1190    -2.4010 hc         1 M7Y       0.047867
     45 H21          2.0260    -2.3240    -3.1570 hc         1 M7Y       0.047867
     46 H22          5.7790     2.4630    -0.6550 hc         1 M7Y       0.044450
     47 H23          4.2380     2.0440    -1.4070 hc         1 M7Y       0.044450
     48 H24          2.0510     2.2200     0.0090 hc         1 M7Y       0.052450
     49 H25          2.2260     2.4640     1.7380 hc         1 M7Y       0.052450
     50 C18          0.1340    -0.4150    -2.4150 c3         1 M7Y      -0.103100
@<TRIPOS>BOND
     1     1     2 ar  
     2     1    12 ar  
     3     1    17 1   
     4     2     3 ar  
     5     2     4 1   
     6     3    10 ar  
     7     3    25 1   
     8     4     5 2   
     9     4    26 1   
    10     5    13 1   
    11     5    27 1   
    12     6    17 1   
    13     6    20 1   
    14     6    21 1   
    15     6    50 1   
    16     7     8 1   
    17     7    19 1   
    18     7    24 1   
    19     7    28 1   
    20     8    23 1   
    21     8    29 1   
    22     8    30 1   
    23     9    23 1   
    24     9    24 1   
    25     9    31 1   
    26     9    32 1   
    27    10    11 ar  
    28    10    33 1   
    29    11    12 ar  
    30    11    34 1   
    31    12    35 1   
    32    13    14 1   
    33    13    16 2   
    34    14    15 1   
    35    14    36 1   
    36    15    37 1   
    37    17    18 1   
    38    18    19 1   
    39    18    22 2   
    40    19    20 1   
    41    20    38 1   
    42    20    39 1   
    43    21    43 1   
    44    21    44 1   
    45    21    45 1   
    46    23    46 1   
    47    23    47 1   
    48    24    48 1   
    49    24    49 1   
    50    40    50 1   
    51    41    50 1   
    52    42    50 1   
@<TRIPOS>SUBSTRUCTURE
     1 M7Y         1 TEMP              0 ****  ****    0 ROOT
