@<TRIPOS>MOLECULE
M7Y
   50    52     1     0     0
SMALL
abcg2


@<TRIPOS>ATOM
      1 C4          -0.6640    -1.8130     0.2770 ca         1 M7Y      -0.005000
      2 C5          -1.9670    -1.3080     0.4000 ca         1 M7Y      -0.065800
      3 C6          -3.0020    -2.1990     0.7020 ca         1 M7Y      -0.090000
      4 C7          -2.2150     0.1230     0.2440 ce         1 M7Y      -0.054200
      5 C8          -3.3940     0.6870    -0.0260 cf         1 M7Y      -0.322200
      6 C17          0.8790    -0.7380    -1.4330 c5         1 M7Y       0.115400
      7 C21          3.5740     0.4650     0.8530 c5         1 M7Y       0.121700
      8 C22          4.8820     0.3470     0.0350 c5         1 M7Y      -0.098400
      9 C24          4.7540     2.6050     0.8020 c5         1 M7Y      -0.081400
     10 C1          -2.7550    -3.5470     0.8850 ca         1 M7Y      -0.114000
     11 C2          -1.4590    -4.0360     0.7760 ca         1 M7Y      -0.090000
     12 C3          -0.4220    -3.1700     0.4740 ca         1 M7Y      -0.115000
     13 C9          -3.5030     2.1560    -0.1620 c          1 M7Y       0.605300
     14 N10         -4.7620     2.5580    -0.4440 ns         1 M7Y      -0.383400
     15 O11         -5.0640     3.8850    -0.4130 oh         1 M7Y      -0.429100
     16 O12         -2.5590     2.9240    -0.0690 o          1 M7Y      -0.575100
     17 N13          0.3990    -0.9450    -0.0530 n          1 M7Y      -0.253400
     18 C14          1.4170    -0.7210     0.8480 c          1 M7Y       0.600000
     19 N15          2.4410    -0.1310     0.1800 n          1 M7Y      -0.408800
     20 C16          2.0230     0.2450    -1.1510 c5         1 M7Y       0.086000
     21 C19          1.4180    -2.0390    -2.0280 c3         1 M7Y      -0.103100
     22 O20          1.3830    -1.0070     2.0330 o          1 M7Y      -0.567000
     23 C23          5.2330     1.7730    -0.3850 c5         1 M7Y      -0.081400
     24 C25          3.4040     1.9760     1.1410 c5         1 M7Y      -0.098400
     25 H1          -4.0120    -1.8270     0.8210 ha         1 M7Y       0.114000
     26 H2          -1.3520     0.7700     0.3490 ha         1 M7Y       0.212000
     27 H3          -4.2890     0.0920    -0.1740 ha         1 M7Y       0.178000
     28 H4           3.6840    -0.0790     1.7910 h1         1 M7Y       0.083700
     29 H5           5.6690    -0.0500     0.6780 hc         1 M7Y       0.052450
     30 H6           4.7900    -0.3470    -0.8020 hc         1 M7Y       0.052450
     31 H7           5.4500     2.4900     1.6380 hc         1 M7Y       0.044450
     32 H8           4.6810     3.6710     0.5830 hc         1 M7Y       0.044450
     33 H9          -3.5720    -4.2160     1.1250 ha         1 M7Y       0.116000
     34 H10         -1.2570    -5.0880     0.9270 ha         1 M7Y       0.118000
     35 H11          0.5890    -3.5450     0.3840 ha         1 M7Y       0.124000
     36 H12         -5.5560     1.9460    -0.3150 hn         1 M7Y       0.330500
     37 H13         -5.0940     4.1740    -1.3330 ho         1 M7Y       0.445000
     38 H14          2.8270     0.1490    -1.8800 h1         1 M7Y       0.054700
     39 H15          1.6620     1.2810    -1.1810 h1         1 M7Y       0.054700
     40 H16          0.2480     0.0290    -3.3330 hc         1 M7Y       0.047867
     41 H17         -1.0300    -0.8080    -2.4600 hc         1 M7Y       0.047867
     42 H18         -0.5400     0.8200    -1.9700 hc         1 M7Y       0.047867
     43 H19          2.2080    -2.4640    -1.4070 hc         1 M7Y       0.047867
     44 H20          0.6300    -2.7850    -2.1360 hc         1 M7Y       0.047867
     45 H21          1.8320    -1.8530    -3.0200 hc         1 M7Y       0.047867
     46 H22          6.2930     1.9020    -0.6060 hc         1 M7Y       0.044450
     47 H23          4.6760     2.0580    -1.2830 hc         1 M7Y       0.044450
     48 H24          2.6330     2.3970     0.4890 hc         1 M7Y       0.052450
     49 H25          3.0840     2.1610     2.1670 hc         1 M7Y       0.052450
     50 C18         -0.1770    -0.1370    -2.3430 c3         1 M7Y      -0.103100
@<TRIPOS>BOND
     1     1     2 ar  
     2     1    12 ar  
     3     1    17 1   
     4     2     3 ar  
     5     2     4 1   
     6     3    10 ar  
     7     3    25 1   
     8     4     5 2   
     9     4    26 1   
    10     5    13 1   
    11     5    27 1   
    12     6    17 1   
    13     6    20 1   
    14     6    21 1   
    15     6    50 1   
    16     7     8 1   
    17     7    19 1   
    18     7    24 1   
    19     7    28 1   
    20     8    23 1   
    21     8    29 1   
    22     8    30 1   
    23     9    23 1   
    24     9    24 1   
    25     9    31 1   
    26     9    32 1   
    27    10    11 ar  
    28    10    33 1   
    29    11    12 ar  
    30    11    34 1   
    31    12    35 1   
    32    13    14 1   
    33    13    16 2   
    34    14    15 1   
    35    14    36 1   
    36    15    37 1   
    37    17    18 1   
    38    18    19 1   
    39    18    22 2   
    40    19    20 1   
    41    20    38 1   
    42    20    39 1   
    43    21    43 1   
    44    21    44 1   
    45    21    45 1   
    46    23    46 1   
    47    23    47 1   
    48    24    48 1   
    49    24    49 1   
    50    40    50 1   
    51    41    50 1   
    52    42    50 1   
@<TRIPOS>SUBSTRUCTURE
     1 M7Y         1 TEMP              0 ****  ****    0 ROOT
