@<TRIPOS>MOLECULE
M7Z
   47    50     1     0     0
SMALL
No Charge or Current Charge


@<TRIPOS>ATOM
      1 C1           6.6460    -1.2330    -0.4400 ca         1 M7Z      -0.112500
      2 C2           5.2600    -1.2610    -0.6750 ca         1 M7Z      -0.063500
      3 N2          -5.9970    -0.1900    -0.1780 n3         1 M7Z      -0.695600
      4 C3           4.4180    -0.2420    -0.1660 ca         1 M7Z      -0.155600
      5 C4           5.0070     0.8070     0.5870 ca         1 M7Z      -0.063500
      6 C5           6.3940     0.8280     0.8180 ca         1 M7Z      -0.112500
      7 C6           2.9240    -0.3040    -0.4400 c          1 M7Z       0.621700
      8 C7           0.7750     1.0250     0.0590 ca         1 M7Z      -0.010000
      9 C8           0.3410     2.1990     0.7270 ca         1 M7Z      -0.186000
     10 C9          -1.0220     2.5690     0.7450 ca         1 M7Z      -0.018000
     11 C10         -1.9430     1.7440     0.0860 ca         1 M7Z       0.041400
     12 C11         -3.7190     0.8390    -0.7510 cc         1 M7Z       0.405800
     13 C12         -5.1540     0.5430    -1.1730 c3         1 M7Z       0.160500
     14 C13         -7.4190    -0.2820    -0.6130 c6         1 M7Z       0.168300
     15 C14         -8.3120    -0.9230     0.4780 c6         1 M7Z      -0.073900
     16 C15         -7.7750    -2.3130     0.8860 c6         1 M7Z      -0.076400
     17 C16         -6.2880    -2.2080     1.2950 c6         1 M7Z      -0.073900
     18 C17         -5.4500    -1.5300     0.1840 c6         1 M7Z       0.168300
     19 C18         -1.5220     0.6170    -0.5550 ca         1 M7Z      -0.054200
     20 C19         -0.1830     0.2130    -0.5990 ca         1 M7Z      -0.141000
     21 O            2.4400    -1.2230    -1.0940 o          1 M7Z      -0.583100
     22 C            7.2110    -0.1900     0.3060 ca         1 M7Z       0.139000
     23 Cl           8.9450    -0.1570     0.5990 cl         1 M7Z      -0.191000
     24 N            2.1670     0.7330     0.0940 ns         1 M7Z      -0.138000
     25 N3          -2.6290     0.0370    -1.0920 na         1 M7Z      -0.319600
     26 N1          -3.3210     1.9090    -0.0270 nd         1 M7Z      -0.539100
     27 H1           7.2810    -2.0210    -0.8360 ha         1 M7Z       0.135000
     28 H2           4.8430    -2.0810    -1.2570 ha         1 M7Z       0.129000
     29 H4           4.4090     1.6150     1.0010 ha         1 M7Z       0.129000
     30 H5           6.8360     1.6360     1.3960 ha         1 M7Z       0.135000
     31 H6           1.0650     2.8320     1.2350 ha         1 M7Z       0.109000
     32 H7          -1.3520     3.4700     1.2570 ha         1 M7Z       0.131000
     33 H8          -5.1210    -0.0230    -2.1140 h1         1 M7Z       0.040200
     34 H9          -5.6260     1.5060    -1.4080 h1         1 M7Z       0.040200
     35 H10         -7.8120     0.7200    -0.8420 h1         1 M7Z       0.030700
     36 H11         -7.4960    -0.8770    -1.5350 h1         1 M7Z       0.030700
     37 H12         -8.3460    -0.2640     1.3560 hc         1 M7Z       0.048950
     38 H13         -9.3430    -1.0100     0.1100 hc         1 M7Z       0.048950
     39 H14         -8.3690    -2.7210     1.7160 hc         1 M7Z       0.037700
     40 H15         -7.8810    -3.0140     0.0460 hc         1 M7Z       0.037700
     41 H16         -6.1990    -1.6300     2.2250 hc         1 M7Z       0.048950
     42 H17         -5.8850    -3.2070     1.5080 hc         1 M7Z       0.048950
     43 H18         -5.4310    -2.1830    -0.7010 h1         1 M7Z       0.030700
     44 H19         -4.4150    -1.4390     0.5440 h1         1 M7Z       0.030700
     45 H20          0.0850    -0.6970    -1.1270 ha         1 M7Z       0.152000
     46 H21          2.7070     1.4150     0.6070 hn         1 M7Z       0.154000
     47 H22         -2.6670    -0.8140    -1.6370 hn         1 M7Z       0.356000
@<TRIPOS>BOND
     1     1     2 ar  
     2     1    22 ar  
     3     1    27 1   
     4     2     4 ar  
     5     2    28 1   
     6     3    13 1   
     7     3    14 1   
     8     3    18 1   
     9     4     5 ar  
    10     4     7 1   
    11     5     6 ar  
    12     5    29 1   
    13     6    22 ar  
    14     6    30 1   
    15     7    21 2   
    16     7    24 1   
    17     8     9 ar  
    18     8    20 ar  
    19     8    24 1   
    20     9    10 ar  
    21     9    31 1   
    22    10    11 ar  
    23    10    32 1   
    24    11    19 ar  
    25    11    26 1   
    26    12    13 1   
    27    12    25 1   
    28    12    26 2   
    29    13    33 1   
    30    13    34 1   
    31    14    15 1   
    32    14    35 1   
    33    14    36 1   
    34    15    16 1   
    35    15    37 1   
    36    15    38 1   
    37    16    17 1   
    38    16    39 1   
    39    16    40 1   
    40    17    18 1   
    41    17    41 1   
    42    17    42 1   
    43    18    43 1   
    44    18    44 1   
    45    19    20 ar  
    46    19    25 1   
    47    20    45 1   
    48    22    23 1   
    49    24    46 1   
    50    25    47 1   
@<TRIPOS>SUBSTRUCTURE
     1 M7Z         1 TEMP              0 ****  ****    0 ROOT
