@<TRIPOS>MOLECULE
M7Z
   47    50     1     0     0
SMALL
abcg2


@<TRIPOS>ATOM
      1 C1           6.8230    -0.5760    -0.7430 ca         1 M7Z      -0.112500
      2 C2           5.4620    -0.7420    -0.9310 ca         1 M7Z      -0.063500
      3 N2          -5.9110    -0.3420    -0.3040 n3         1 M7Z      -0.695600
      4 C3           4.5510     0.1680    -0.3970 ca         1 M7Z      -0.155600
      5 C4           5.0310     1.2680     0.3090 ca         1 M7Z      -0.063500
      6 C5           6.3930     1.4530     0.4940 ca         1 M7Z      -0.112500
      7 C6           3.0980    -0.0630    -0.6590 c          1 M7Z       0.621700
      8 C7           0.8590     0.4410     0.3020 ca         1 M7Z      -0.010000
      9 C8           0.2730     1.0750     1.4190 ca         1 M7Z      -0.186000
     10 C9          -1.0950     1.1760     1.5690 ca         1 M7Z      -0.018000
     11 C10         -1.9090     0.6320     0.5790 ca         1 M7Z       0.041400
     12 C11         -3.5080    -0.0440    -0.6510 cc         1 M7Z       0.405800
     13 C12         -4.8430    -0.3060    -1.2700 c3         1 M7Z       0.160500
     14 C13         -7.2050    -0.2280    -0.9570 c6         1 M7Z       0.168300
     15 C14         -8.3320    -0.1580     0.0620 c6         1 M7Z      -0.073900
     16 C15         -8.3010    -1.3610     0.9950 c6         1 M7Z      -0.076400
     17 C16         -6.9160    -1.5040     1.6110 c6         1 M7Z      -0.073900
     18 C17         -5.8420    -1.5290     0.5350 c6         1 M7Z       0.168300
     19 C18         -1.3100    -0.0020    -0.5180 ca         1 M7Z      -0.054200
     20 C19          0.0640    -0.1170    -0.6930 ca         1 M7Z      -0.141000
     21 O            2.7310    -0.6660    -1.6540 o          1 M7Z      -0.583100
     22 C            7.2770     0.5230    -0.0290 ca         1 M7Z       0.139000
     23 CL           8.9760     0.7420     0.2040 cl         1 M7Z      -0.191000
     24 N            2.2610     0.4290     0.2830 ns         1 M7Z      -0.138000
     25 N3          -2.3630    -0.4280    -1.2800 na         1 M7Z      -0.319600
     26 N1          -3.2790     0.5910     0.4640 nd         1 M7Z      -0.539100
     27 H1           7.5200    -1.2960    -1.1490 ha         1 M7Z       0.135000
     28 H2           5.1090    -1.5960    -1.4920 ha         1 M7Z       0.129000
     29 H4           4.3610     2.0200     0.7060 ha         1 M7Z       0.129000
     30 H5           6.7550     2.3170     1.0330 ha         1 M7Z       0.135000
     31 H6           0.9180     1.4980     2.1800 ha         1 M7Z       0.109000
     32 H7          -1.5170     1.6680     2.4360 ha         1 M7Z       0.131000
     33 H8          -4.7830    -1.2280    -1.8750 h1         1 M7Z       0.040200
     34 H9          -5.0400     0.5030    -1.9820 h1         1 M7Z       0.040200
     35 H10         -7.2060     0.6760    -1.5710 h1         1 M7Z       0.030700
     36 H11         -7.3850    -1.0750    -1.6440 h1         1 M7Z       0.030700
     37 H12         -8.2290     0.7620     0.6450 hc         1 M7Z       0.048950
     38 H13         -9.2870    -0.0970    -0.4640 hc         1 M7Z       0.048950
     39 H14         -9.0610    -1.2640     1.7730 hc         1 M7Z       0.037700
     40 H15         -8.5440    -2.2680     0.4320 hc         1 M7Z       0.037700
     41 H16         -6.7250    -0.6640     2.2870 hc         1 M7Z       0.048950
     42 H17         -6.8480    -2.4150     2.2090 hc         1 M7Z       0.048950
     43 H18         -5.9500    -2.4460    -0.0710 h1         1 M7Z       0.030700
     44 H19         -4.8570    -1.5760     1.0030 h1         1 M7Z       0.030700
     45 H20          0.4800    -0.6120    -1.5540 ha         1 M7Z       0.152000
     46 H21          2.6880     0.8170     1.1100 hn         1 M7Z       0.154000
     47 H22         -2.3080    -0.9400    -2.1460 hn         1 M7Z       0.356000
@<TRIPOS>BOND
     1     1     2 ar  
     2     1    22 ar  
     3     1    27 1   
     4     2     4 ar  
     5     2    28 1   
     6     3    13 1   
     7     3    14 1   
     8     3    18 1   
     9     4     5 ar  
    10     4     7 1   
    11     5     6 ar  
    12     5    29 1   
    13     6    22 ar  
    14     6    30 1   
    15     7    21 2   
    16     7    24 1   
    17     8     9 ar  
    18     8    20 ar  
    19     8    24 1   
    20     9    10 ar  
    21     9    31 1   
    22    10    11 ar  
    23    10    32 1   
    24    11    19 ar  
    25    11    26 1   
    26    12    13 1   
    27    12    25 1   
    28    12    26 2   
    29    13    33 1   
    30    13    34 1   
    31    14    15 1   
    32    14    35 1   
    33    14    36 1   
    34    15    16 1   
    35    15    37 1   
    36    15    38 1   
    37    16    17 1   
    38    16    39 1   
    39    16    40 1   
    40    17    18 1   
    41    17    41 1   
    42    17    42 1   
    43    18    43 1   
    44    18    44 1   
    45    19    20 ar  
    46    19    25 1   
    47    20    45 1   
    48    22    23 1   
    49    24    46 1   
    50    25    47 1   
@<TRIPOS>SUBSTRUCTURE
     1 M7Z         1 TEMP              0 ****  ****    0 ROOT
