@<TRIPOS>MOLECULE
M80
   58    60     1     0     0
SMALL
bcc


@<TRIPOS>ATOM
      1 C1B         -9.6250    -0.5700     0.4980 c          1 M80       0.928600
      2 O1B        -10.0830    -0.9650    -0.5920 o          1 M80      -0.843800
      3 C2B         -8.1090    -0.3180     0.5920 c3         1 M80      -0.204400
      4 C3B         -7.3420    -0.4240    -0.7240 c3         1 M80      -0.023100
      5 CB1         -5.8700    -0.1840    -0.5360 ca         1 M80      -0.051300
      6 CB6         -4.9520    -1.2280    -0.5600 ca         1 M80      -0.116500
      7 CB5         -3.5950    -1.0240    -0.3380 ca         1 M80      -0.153500
      8 CB2         -5.3790     1.0960    -0.2810 ca         1 M80      -0.116500
      9 CB3         -4.0320     1.3210    -0.0650 ca         1 M80      -0.153500
     10 CB4         -3.1240     0.2610    -0.0890 ca         1 M80       0.020600
     11 NB4         -1.7760     0.5540     0.1790 ns         1 M80      -0.464100
     12 C4B         -0.6810    -0.0780    -0.2980 c          1 M80       0.664100
     13 O4B         -0.7030    -1.0800    -0.9880 o          1 M80      -0.583100
     14 CW           0.6280     0.6220     0.0560 c3         1 M80       0.035700
     15 CW1          0.8850     1.7610    -0.9580 c3         1 M80      -0.057100
     16 CW2          2.1890     2.4500    -0.6750 ca         1 M80      -0.082300
     17 CW3          3.3720     2.0050    -1.2610 ca         1 M80      -0.116500
     18 CW4          4.5870     2.5950    -0.9420 ca         1 M80      -0.127500
     19 CW5          4.6350     3.6470    -0.0370 ca         1 M80      -0.128000
     20 CW6          3.4590     4.1050     0.5450 ca         1 M80      -0.127500
     21 CW7          2.2480     3.5070     0.2290 ca         1 M80      -0.116500
     22 NW           1.7000    -0.3310     0.0620 ns         1 M80      -0.541900
     23 CY           2.6930    -0.2840     0.9780 c          1 M80       0.758100
     24 OY1          2.6720     0.3570     2.0060 o          1 M80      -0.591000
     25 OY2          3.7050    -1.0740     0.6070 os         1 M80      -0.433900
     26 CZ           4.8570    -1.0950     1.4570 c3         1 M80       0.206700
     27 CZ1          5.9480    -1.7880     0.6990 ca         1 M80      -0.095300
     28 CZ2          6.6150    -1.1200    -0.3260 ca         1 M80      -0.103500
     29 CZ3          7.6160    -1.7540    -1.0470 ca         1 M80      -0.135000
     30 CZ4          7.9610    -3.0670    -0.7490 ca         1 M80      -0.120000
     31 CZ5          7.3010    -3.7400     0.2710 ca         1 M80      -0.135000
     32 CZ6          6.2970    -3.1020     0.9890 ca         1 M80      -0.103500
     33 OXT        -10.2750    -0.3630     1.5440 o          1 M80      -0.843800
     34 H2B1        -7.9480     0.6700     1.0360 hc         1 M80       0.020200
     35 H2B2        -7.6870    -1.0250     1.3150 hc         1 M80       0.020200
     36 H3B1        -7.5000    -1.4110    -1.1610 hc         1 M80       0.053200
     37 H3B2        -7.7450     0.2980    -1.4400 hc         1 M80       0.053200
     38 HB6         -5.2980    -2.2370    -0.7510 ha         1 M80       0.135500
     39 HB2         -6.0620     1.9370    -0.2580 ha         1 M80       0.135500
     40 HB5         -2.9250    -1.8690    -0.3470 ha         1 M80       0.129000
     41 HB3         -3.6780     2.3280     0.1230 ha         1 M80       0.129000
     42 HB4         -1.6170     1.3960     0.7110 hn         1 M80       0.311500
     43 HW           0.5560     1.0520     1.0570 h1         1 M80       0.094700
     44 HW11         0.8880     1.3400    -1.9670 hc         1 M80       0.062700
     45 HW12         0.0600     2.4750    -0.9140 hc         1 M80       0.062700
     46 HA           1.8600    -0.8550    -0.7850 hn         1 M80       0.338500
     47 HW3          3.3430     1.1900    -1.9740 ha         1 M80       0.129500
     48 HW7          1.3360     3.8670     0.6910 ha         1 M80       0.129500
     49 HW4          5.4980     2.2350    -1.4050 ha         1 M80       0.127000
     50 HW5          5.5820     4.1100     0.2090 ha         1 M80       0.126000
     51 HW6          3.4860     4.9290     1.2460 ha         1 M80       0.127000
     52 HZ1C         5.1540    -0.0750     1.7080 h1         1 M80       0.056700
     53 HZ2C         4.6280    -1.6210     2.3860 h1         1 M80       0.056700
     54 HZ2          6.3550    -0.0930    -0.5570 ha         1 M80       0.133500
     55 HZ6          5.7830    -3.6330     1.7810 ha         1 M80       0.133500
     56 HZ3          8.1290    -1.2230    -1.8370 ha         1 M80       0.130000
     57 HZ4          8.7440    -3.5640    -1.3080 ha         1 M80       0.128000
     58 HZ5          7.5670    -4.7620     0.5070 ha         1 M80       0.130000
@<TRIPOS>BOND
     1     1     2 1   
     2     1     3 1   
     3     1    33 1   
     4     3     4 1   
     5     3    34 1   
     6     3    35 1   
     7     4     5 1   
     8     4    36 1   
     9     4    37 1   
    10     5     6 ar  
    11     5     8 ar  
    12     6     7 ar  
    13     6    38 1   
    14     7    10 ar  
    15     7    40 1   
    16     8     9 ar  
    17     8    39 1   
    18     9    10 ar  
    19     9    41 1   
    20    10    11 1   
    21    11    12 1   
    22    11    42 1   
    23    12    13 2   
    24    12    14 1   
    25    14    15 1   
    26    14    22 1   
    27    14    43 1   
    28    15    16 1   
    29    15    44 1   
    30    15    45 1   
    31    16    17 ar  
    32    16    21 ar  
    33    17    18 ar  
    34    17    47 1   
    35    18    19 ar  
    36    18    49 1   
    37    19    20 ar  
    38    19    50 1   
    39    20    21 ar  
    40    20    51 1   
    41    21    48 1   
    42    22    23 1   
    43    22    46 1   
    44    23    24 2   
    45    23    25 1   
    46    25    26 1   
    47    26    27 1   
    48    26    52 1   
    49    26    53 1   
    50    27    28 ar  
    51    27    32 ar  
    52    28    29 ar  
    53    28    54 1   
    54    29    30 ar  
    55    29    56 1   
    56    30    31 ar  
    57    30    57 1   
    58    31    32 ar  
    59    31    58 1   
    60    32    55 1   
@<TRIPOS>SUBSTRUCTURE
     1 M80         1 TEMP              0 ****  ****    0 ROOT
