@<TRIPOS>MOLECULE
M80
   58    60     1     0     0
SMALL
No Charge or Current Charge


@<TRIPOS>ATOM
      1 C1B         -9.4860    -1.3020     0.4960 c          1 M80       0.718000
      2 O1B         -9.8340    -2.3500    -0.0270 o          1 M80      -0.738500
      3 C2B         -7.9810    -1.0500     0.6840 c3         1 M80      -0.204400
      4 C3B         -7.3990    -0.3630    -0.5730 c3         1 M80      -0.023100
      5 CB1         -5.9060    -0.0870    -0.4430 ca         1 M80      -0.051300
      6 CB6         -4.9660    -1.0430    -0.8680 ca         1 M80      -0.098500
      7 CB5         -3.5870    -0.7920    -0.7470 ca         1 M80      -0.135500
      8 CB2         -5.4520     1.1240     0.1090 ca         1 M80      -0.098500
      9 CB3         -4.0750     1.3750     0.2310 ca         1 M80      -0.135500
     10 CB4         -3.1280     0.4240    -0.1950 ca         1 M80      -0.072000
     11 NB4         -1.7520     0.7520    -0.0390 ns         1 M80      -0.138000
     12 C4B         -0.5780     0.0670    -0.3440 c          1 M80       0.597100
     13 O4B         -0.5450    -1.0540    -0.8440 o          1 M80      -0.583100
     14 CW           0.7160     0.8540     0.0130 c3         1 M80       0.035700
     15 CW1          0.9160     2.0760    -0.9250 c3         1 M80      -0.057100
     16 CW2          2.1750     2.8790    -0.6160 ca         1 M80      -0.082300
     17 CW3          3.3500     2.6820    -1.3690 ca         1 M80      -0.098500
     18 CW4          4.5130     3.4150    -1.0740 ca         1 M80      -0.109500
     19 CW5          4.5070     4.3520    -0.0270 ca         1 M80      -0.110000
     20 CW6          3.3380     4.5540     0.7260 ca         1 M80      -0.109500
     21 CW7          2.1760     3.8200     0.4320 ca         1 M80      -0.098500
     22 NW           1.8980    -0.0400    -0.0230 ns         1 M80      -0.474900
     23 CY           2.9540     0.0160     0.8410 c          1 M80       0.642100
     24 OY1          3.0330     0.7490     1.8140 o          1 M80      -0.542000
     25 OY2          3.8800    -0.9040     0.4600 os         1 M80      -0.457100
     26 CZ           5.0820    -0.9930     1.2410 c3         1 M80       0.229900
     27 CZ1          5.9810    -2.0540     0.6200 ca         1 M80      -0.095300
     28 CZ2          6.8690    -1.7120    -0.4200 ca         1 M80      -0.085500
     29 CZ3          7.7000    -2.6900    -0.9940 ca         1 M80      -0.117000
     30 CZ4          7.6470    -4.0160    -0.5330 ca         1 M80      -0.102000
     31 CZ5          6.7630    -4.3640     0.5020 ca         1 M80      -0.117000
     32 CZ6          5.9310    -3.3870     1.0760 ca         1 M80      -0.085500
     33 OXT        -10.2640    -0.4210     0.8290 o          1 M80      -0.738500
     34 H2B1        -7.8080    -0.3540     1.5140 hc         1 M80       0.020200
     35 H2B2        -7.4410    -2.0000     0.7830 hc         1 M80       0.020200
     36 H3B1        -7.5890    -0.9940    -1.4510 hc         1 M80       0.053200
     37 H3B2        -7.9390     0.5750    -0.7540 hc         1 M80       0.053200
     38 HB6         -5.3040    -1.9860    -1.2930 ha         1 M80       0.117500
     39 HB2         -6.1670     1.8710     0.4460 ha         1 M80       0.117500
     40 HB5         -2.8980    -1.5570    -1.0880 ha         1 M80       0.111000
     41 HB3         -3.7430     2.3190     0.6600 ha         1 M80       0.111000
     42 HB4         -1.5990     1.6640     0.3720 hn         1 M80       0.145000
     43 HW           0.5860     1.2210     1.0400 h1         1 M80       0.094700
     44 HW11         0.9420     1.7240    -1.9640 hc         1 M80       0.062700
     45 HW12         0.0410     2.7340    -0.8560 hc         1 M80       0.062700
     46 HA           1.9620    -0.7390    -0.7530 hn         1 M80       0.338500
     47 HW3          3.3660     1.9560    -2.1780 ha         1 M80       0.111500
     48 HW7          1.2760     3.9800     1.0230 ha         1 M80       0.111500
     49 HW4          5.4170     3.2560    -1.6570 ha         1 M80       0.109000
     50 HW5          5.4070     4.9190     0.2010 ha         1 M80       0.108000
     51 HW6          3.3330     5.2780     1.5380 ha         1 M80       0.109000
     52 HZ1C         5.6100    -0.0300     1.2540 h1         1 M80       0.056700
     53 HZ2C         4.8530    -1.2660     2.2800 h1         1 M80       0.056700
     54 HZ2          6.9130    -0.6870    -0.7840 ha         1 M80       0.115500
     55 HZ6          5.2470    -3.6650     1.8750 ha         1 M80       0.115500
     56 HZ3          8.3830    -2.4200    -1.7960 ha         1 M80       0.112000
     57 HZ4          8.2900    -4.7730    -0.9770 ha         1 M80       0.110000
     58 HZ5          6.7200    -5.3910     0.8580 ha         1 M80       0.112000
@<TRIPOS>BOND
     1     1     2 1   
     2     1     3 1   
     3     1    33 1   
     4     3     4 1   
     5     3    34 1   
     6     3    35 1   
     7     4     5 1   
     8     4    36 1   
     9     4    37 1   
    10     5     6 ar  
    11     5     8 ar  
    12     6     7 ar  
    13     6    38 1   
    14     7    10 ar  
    15     7    40 1   
    16     8     9 ar  
    17     8    39 1   
    18     9    10 ar  
    19     9    41 1   
    20    10    11 1   
    21    11    12 1   
    22    11    42 1   
    23    12    13 2   
    24    12    14 1   
    25    14    15 1   
    26    14    22 1   
    27    14    43 1   
    28    15    16 1   
    29    15    44 1   
    30    15    45 1   
    31    16    17 ar  
    32    16    21 ar  
    33    17    18 ar  
    34    17    47 1   
    35    18    19 ar  
    36    18    49 1   
    37    19    20 ar  
    38    19    50 1   
    39    20    21 ar  
    40    20    51 1   
    41    21    48 1   
    42    22    23 1   
    43    22    46 1   
    44    23    24 2   
    45    23    25 1   
    46    25    26 1   
    47    26    27 1   
    48    26    52 1   
    49    26    53 1   
    50    27    28 ar  
    51    27    32 ar  
    52    28    29 ar  
    53    28    54 1   
    54    29    30 ar  
    55    29    56 1   
    56    30    31 ar  
    57    30    57 1   
    58    31    32 ar  
    59    31    58 1   
    60    32    55 1   
@<TRIPOS>SUBSTRUCTURE
     1 M80         1 TEMP              0 ****  ****    0 ROOT
