@<TRIPOS>MOLECULE
M81
   26    27     1     0     0
SMALL
abcg2


@<TRIPOS>ATOM
      1 CL           7.8810    34.5720    -3.2810 cl         1 M81      -0.258000
      2 C3           9.3960    35.2280    -2.6790 ca         1 M81       0.123000
      3 C2           9.5920    36.6000    -2.7570 ca         1 M81      -0.126000
      4 C1          10.7820    37.1430    -2.2880 ca         1 M81      -0.137000
      5 C4          10.3540    34.3660    -2.1460 ca         1 M81      -0.027300
      6 C5          11.5390    34.9370    -1.6840 ca         1 M81      -0.060000
      7 C           11.7560    36.3080    -1.7520 ca         1 M81      -0.116000
      8 C6          10.0970    32.8780    -2.0820 c3         1 M81       0.140900
      9 N           11.1620    32.1400    -1.4320 na         1 M81       0.091800
     10 N1          12.1700    31.6770    -2.1910 nc         1 M81      -0.563800
     11 C9          13.0480    31.1310    -1.3410 cd         1 M81       0.191500
     12 C10         14.3310    30.4840    -1.8160 c          1 M81       0.626500
     13 O1          14.5800    30.5110    -3.0470 o          1 M81      -0.742000
     14 O           15.0480    29.9710    -0.9180 o          1 M81      -0.742000
     15 C8          12.5880    31.2650    -0.0190 cd         1 M81      -0.195000
     16 C7          11.3740    31.9230    -0.0970 cc         1 M81      -0.222600
     17 C11         10.4480    32.3340     1.0250 c          1 M81       0.732600
     18 O2           9.3310    32.8220     0.7200 o          1 M81      -0.739000
     19 O3          10.8920    32.1410     2.1830 o          1 M81      -0.739000
     20 H2           8.8210    37.2310    -3.1770 ha         1 M81       0.099000
     21 H1          10.9420    38.2120    -2.3450 ha         1 M81       0.088000
     22 H           12.6860    36.7220    -1.3840 ha         1 M81       0.103000
     23 H5          12.3020    34.2960    -1.2640 ha         1 M81       0.162000
     24 H61C         9.1770    32.6910    -1.5360 h1         1 M81       0.083700
     25 H62C        10.0000    32.4730    -3.0890 h1         1 M81       0.083700
     26 H8          13.0720    30.9270     0.8790 ha         1 M81       0.143000
@<TRIPOS>BOND
     1     1     2 1   
     2     2     3 ar  
     3     2     5 ar  
     4     3     4 ar  
     5     3    20 1   
     6     4     7 ar  
     7     4    21 1   
     8     5     6 ar  
     9     5     8 1   
    10     6     7 ar  
    11     6    23 1   
    12     7    22 1   
    13     8     9 1   
    14     8    24 1   
    15     8    25 1   
    16     9    10 1   
    17     9    16 1   
    18    10    11 2   
    19    11    12 1   
    20    11    15 1   
    21    12    13 1   
    22    12    14 1   
    23    15    16 2   
    24    15    26 1   
    25    16    17 1   
    26    17    18 1   
    27    17    19 1   
@<TRIPOS>SUBSTRUCTURE
     1 M81         1 TEMP              0 ****  ****    0 ROOT
