@<TRIPOS>MOLECULE
M81
   26    27     1     0     0
SMALL
No Charge or Current Charge


@<TRIPOS>ATOM
      1 Cl           7.8340    34.5420    -3.3130 cl         1 M81      -0.258000
      2 C3           9.3250    35.2590    -2.6970 ca         1 M81       0.123000
      3 C2           9.4590    36.6570    -2.7340 ca         1 M81      -0.126000
      4 C1          10.6310    37.2680    -2.2620 ca         1 M81      -0.137000
      5 C4          10.3650    34.4500    -2.1840 ca         1 M81      -0.027300
      6 C5          11.5440    35.0770    -1.7150 ca         1 M81      -0.060000
      7 C           11.6720    36.4770    -1.7540 ca         1 M81      -0.116000
      8 C6          10.1930    32.9250    -2.1590 c3         1 M81       0.140900
      9 N           11.2670    32.1590    -1.4880 na         1 M81       0.091800
     10 N1          12.2710    31.5870    -2.2510 nc         1 M81      -0.563800
     11 C9          13.0600    30.9890    -1.3560 cd         1 M81       0.191500
     12 C10         14.3260    30.2070    -1.7020 c          1 M81       0.626500
     13 O1          14.6760    30.0970    -2.8730 o          1 M81      -0.742000
     14 O           14.9740    29.6980    -0.7930 o          1 M81      -0.742000
     15 C8          12.5570    31.1830    -0.0460 cd         1 M81      -0.195000
     16 C7          11.4090    31.9290    -0.1180 cc         1 M81      -0.222600
     17 C11         10.5830    32.3500     1.0460 c          1 M81       0.732600
     18 O2           9.5780    33.0150     0.8500 o          1 M81      -0.739000
     19 O3          10.9360    32.0130     2.1670 o          1 M81      -0.739000
     20 H2           8.6520    37.2680    -3.1310 ha         1 M81       0.099000
     21 H1          10.7320    38.3510    -2.2920 ha         1 M81       0.088000
     22 H           12.5830    36.9480    -1.3900 ha         1 M81       0.103000
     23 H5          12.3700    34.4910    -1.3200 ha         1 M81       0.162000
     24 H61C         9.2440    32.6760    -1.6700 h1         1 M81       0.083700
     25 H62C        10.1160    32.5680    -3.1930 h1         1 M81       0.083700
     26 H8          13.0110    30.8010     0.8620 ha         1 M81       0.143000
@<TRIPOS>BOND
     1     1     2 1   
     2     2     3 ar  
     3     2     5 ar  
     4     3     4 ar  
     5     3    20 1   
     6     4     7 ar  
     7     4    21 1   
     8     5     6 ar  
     9     5     8 1   
    10     6     7 ar  
    11     6    23 1   
    12     7    22 1   
    13     8     9 1   
    14     8    24 1   
    15     8    25 1   
    16     9    10 1   
    17     9    16 1   
    18    10    11 2   
    19    11    12 1   
    20    11    15 1   
    21    12    13 1   
    22    12    14 1   
    23    15    16 2   
    24    15    26 1   
    25    16    17 1   
    26    17    18 1   
    27    17    19 1   
@<TRIPOS>SUBSTRUCTURE
     1 M81         1 TEMP              0 ****  ****    0 ROOT
