@<TRIPOS>MOLECULE
M82
   47    50     1     0     0
SMALL
No Charge or Current Charge


@<TRIPOS>ATOM
      1 N1           4.4740     0.2120     1.0340 na         1 M82      -0.318600
      2 C2          -2.7650    -0.2500     0.6710 ca         1 M82      -0.074500
      3 N3           7.8080    -0.3910     0.1750 n3         1 M82      -0.696600
      4 C4          -3.9150     1.2090    -0.9030 ca         1 M82      -0.074500
      5 C5          -5.1470     0.6510    -0.5180 ca         1 M82      -0.089500
      6 C6          -1.3900     1.3940    -0.7560 c          1 M82       0.616700
      7 O           -1.3650     2.2730    -1.6110 o          1 M82      -0.569100
      8 C3          -2.7040     0.7680    -0.3160 ca         1 M82      -0.141600
      9 C1          -4.0020    -0.8030     1.0510 ca         1 M82      -0.089500
     10 C           -5.1890    -0.3530     0.4580 ca         1 M82       0.212000
     11 I           -7.0880    -1.2110     1.0490 i          1 M82      -0.302000
     12 N           -0.2480     0.9040    -0.1330 ns         1 M82      -0.151000
     13 C7           1.1330     1.2250    -0.2600 ca         1 M82      -0.011000
     14 C12          2.0430     0.4730     0.5170 ca         1 M82      -0.167000
     15 C11          3.4040     0.7720     0.4100 ca         1 M82      -0.061200
     16 C13          5.6120     0.8740     0.5690 cc         1 M82       0.406800
     17 N2           5.2770     1.8380    -0.3190 nd         1 M82      -0.541100
     18 C10          3.8900     1.7500    -0.4040 ca         1 M82       0.052400
     19 C9           3.0180     2.5180    -1.1860 ca         1 M82      -0.027000
     20 C8           1.6320     2.2510    -1.1110 ca         1 M82      -0.134000
     21 C14          7.0280     0.5550     1.0330 c3         1 M82       0.156500
     22 C19          9.2260    -0.5050     0.6180 c6         1 M82       0.164300
     23 C18         10.0600    -1.3800    -0.3500 c6         1 M82      -0.074400
     24 C17          9.4260    -2.7800    -0.5180 c6         1 M82      -0.076400
     25 C16          7.9440    -2.6430    -0.9380 c6         1 M82      -0.074400
     26 C15          7.1670    -1.7310     0.0440 c6         1 M82       0.164300
     27 H1           4.4620    -0.5410     1.7090 hn         1 M82       0.353000
     28 H4          -3.9080     1.9880    -1.6630 ha         1 M82       0.130000
     29 H5          -6.0700     0.9980    -0.9760 ha         1 M82       0.132500
     30 H6          -4.0400    -1.5830     1.8080 ha         1 M82       0.132500
     31 H7          -0.4290     0.1760     0.5440 hn         1 M82       0.152000
     32 H8           1.6980    -0.3170     1.1800 ha         1 M82       0.115000
     33 H10          3.4020     3.3010    -1.8360 ha         1 M82       0.134000
     34 H11          0.9680     2.8550    -1.7200 ha         1 M82       0.136000
     35 H12          6.9670     0.1600     2.0560 h1         1 M82       0.045200
     36 H13          7.5670     1.5090     1.1020 h1         1 M82       0.045200
     37 H14          9.6880     0.4910     0.6750 h1         1 M82       0.029450
     38 H15          9.2730    -0.9420     1.6270 h1         1 M82       0.029450
     39 H16         10.1270    -0.8820    -1.3270 hc         1 M82       0.049950
     40 H17         11.0870    -1.4750     0.0260 hc         1 M82       0.049950
     41 H18          9.9810    -3.3600    -1.2680 hc         1 M82       0.038700
     42 H19          9.4940    -3.3350     0.4280 hc         1 M82       0.038700
     43 H20          7.8830    -2.2240    -1.9520 hc         1 M82       0.049950
     44 H21          7.4720    -3.6340    -0.9790 hc         1 M82       0.049950
     45 H22          7.1150    -2.2240     1.0260 h1         1 M82       0.029450
     46 H23          6.1370    -1.6320    -0.3250 h1         1 M82       0.029450
     47 H2          -1.8680    -0.6270     1.1560 ha         1 M82       0.130000
@<TRIPOS>BOND
     1     1    15 1   
     2     1    16 1   
     3     1    27 1   
     4     2     8 ar  
     5     2     9 ar  
     6     2    47 1   
     7     3    21 1   
     8     3    22 1   
     9     3    26 1   
    10     4     5 ar  
    11     4     8 ar  
    12     4    28 1   
    13     5    10 ar  
    14     5    29 1   
    15     6     7 2   
    16     6     8 1   
    17     6    12 1   
    18     9    10 ar  
    19     9    30 1   
    20    10    11 1   
    21    12    13 1   
    22    12    31 1   
    23    13    14 ar  
    24    13    20 ar  
    25    14    15 ar  
    26    14    32 1   
    27    15    18 ar  
    28    16    17 2   
    29    16    21 1   
    30    17    18 1   
    31    18    19 ar  
    32    19    20 ar  
    33    19    33 1   
    34    20    34 1   
    35    21    35 1   
    36    21    36 1   
    37    22    23 1   
    38    22    37 1   
    39    22    38 1   
    40    23    24 1   
    41    23    39 1   
    42    23    40 1   
    43    24    25 1   
    44    24    41 1   
    45    24    42 1   
    46    25    26 1   
    47    25    43 1   
    48    25    44 1   
    49    26    45 1   
    50    26    46 1   
@<TRIPOS>SUBSTRUCTURE
     1 M82         1 TEMP              0 ****  ****    0 ROOT
