@<TRIPOS>MOLECULE
M82
   47    50     1     0     0
SMALL
bcc


@<TRIPOS>ATOM
      1 N1           4.4540    -0.0760     1.3800 na         1 M82      -0.268300
      2 C2          -3.0220     0.9250     0.8960 ca         1 M82      -0.092500
      3 N3           7.7130    -0.3980     0.2370 n3         1 M82      -0.696600
      4 C4          -3.3980     0.0450    -1.3060 ca         1 M82      -0.092500
      5 C5          -4.7230    -0.2080    -0.9880 ca         1 M82      -0.107500
      6 C6          -1.1200     0.8590    -0.7770 c          1 M82       0.683700
      7 O           -0.8270     1.0540    -1.9440 o          1 M82      -0.569100
      8 C3          -2.5330     0.5990    -0.3660 ca         1 M82      -0.141600
      9 C1          -4.3500     0.6900     1.2240 ca         1 M82      -0.107500
     10 C           -5.1890     0.1180     0.2790 ca         1 M82       0.074900
     11 I           -7.1980    -0.2520     0.7690 i          1 M82      -0.164900
     12 N           -0.2180     0.8500     0.2350 ns         1 M82      -0.477100
     13 C7           1.1690     1.0530     0.1120 ca         1 M82       0.081600
     14 C12          2.0050     0.2580     0.8820 ca         1 M82      -0.185000
     15 C11          3.3680     0.5010     0.7860 ca         1 M82      -0.061200
     16 C13          5.5640     0.5470     0.9000 cc         1 M82       0.406800
     17 N2           5.2800     1.4870     0.0410 nd         1 M82      -0.541100
     18 C10          3.9090     1.4850    -0.0560 ca         1 M82       0.052400
     19 C9           3.0500     2.2770    -0.8170 ca         1 M82      -0.045000
     20 C8           1.6890     2.0600    -0.7230 ca         1 M82      -0.152000
     21 C14          6.9380     0.1480     1.3320 c3         1 M82       0.156500
     22 C19          9.0960    -0.5930     0.6430 c6         1 M82       0.164300
     23 C18          9.9490    -1.0770    -0.5190 c6         1 M82      -0.074400
     24 C17          9.3820    -2.3660    -1.0990 c6         1 M82      -0.076400
     25 C16          7.9170    -2.1630    -1.4610 c6         1 M82      -0.074400
     26 C15          7.1320    -1.6300    -0.2720 c6         1 M82       0.164300
     27 H1           4.4450    -0.8250     2.0540 hn         1 M82       0.302700
     28 H4          -3.0390    -0.2040    -2.2950 ha         1 M82       0.148000
     29 H5          -5.3740    -0.6530    -1.7280 ha         1 M82       0.150500
     30 H6          -4.7120     0.9620     2.2050 ha         1 M82       0.150500
     31 H7          -0.5260     0.4850     1.1230 hn         1 M82       0.318500
     32 H8           1.6070    -0.5190     1.5230 ha         1 M82       0.133000
     33 H10          3.4380     3.0550    -1.4610 ha         1 M82       0.152000
     34 H11          1.0180     2.6870    -1.2890 ha         1 M82       0.154000
     35 H12          6.8580    -0.5520     2.1800 h1         1 M82       0.045200
     36 H13          7.4500     1.0370     1.7090 h1         1 M82       0.045200
     37 H14          9.4830     0.3560     1.0220 h1         1 M82       0.029450
     38 H15          9.1700    -1.3200     1.4730 h1         1 M82       0.029450
     39 H16          9.9750    -0.3030    -1.2920 hc         1 M82       0.049950
     40 H17         10.9760    -1.2200    -0.1750 hc         1 M82       0.049950
     41 H18          9.9570    -2.6840    -1.9720 hc         1 M82       0.038700
     42 H19          9.4670    -3.1670    -0.3570 hc         1 M82       0.038700
     43 H20          7.8380    -1.4520    -2.2900 hc         1 M82       0.049950
     44 H21          7.4630    -3.0980    -1.7960 hc         1 M82       0.049950
     45 H22          7.0900    -2.4040     0.5160 h1         1 M82       0.029450
     46 H23          6.1010    -1.4410    -0.5810 h1         1 M82       0.029450
     47 H2          -2.3890     1.3900     1.6410 ha         1 M82       0.148000
@<TRIPOS>BOND
     1     1    15 1   
     2     1    16 1   
     3     1    27 1   
     4     2     8 ar  
     5     2     9 ar  
     6     2    47 1   
     7     3    21 1   
     8     3    22 1   
     9     3    26 1   
    10     4     5 ar  
    11     4     8 ar  
    12     4    28 1   
    13     5    10 ar  
    14     5    29 1   
    15     6     7 2   
    16     6     8 1   
    17     6    12 1   
    18     9    10 ar  
    19     9    30 1   
    20    10    11 1   
    21    12    13 1   
    22    12    31 1   
    23    13    14 ar  
    24    13    20 ar  
    25    14    15 ar  
    26    14    32 1   
    27    15    18 ar  
    28    16    17 2   
    29    16    21 1   
    30    17    18 1   
    31    18    19 ar  
    32    19    20 ar  
    33    19    33 1   
    34    20    34 1   
    35    21    35 1   
    36    21    36 1   
    37    22    23 1   
    38    22    37 1   
    39    22    38 1   
    40    23    24 1   
    41    23    39 1   
    42    23    40 1   
    43    24    25 1   
    44    24    41 1   
    45    24    42 1   
    46    25    26 1   
    47    25    43 1   
    48    25    44 1   
    49    26    45 1   
    50    26    46 1   
@<TRIPOS>SUBSTRUCTURE
     1 M82         1 TEMP              0 ****  ****    0 ROOT
