@<TRIPOS>MOLECULE
M83
   22    23     1     0     0
SMALL
No Charge or Current Charge


@<TRIPOS>ATOM
      1 O1          36.0730     2.9830    31.9650 o          1 M83      -0.694500
      2 C10         36.7700     2.9410    32.9720 c          1 M83       0.618500
      3 O           37.9810     3.1260    32.9290 o          1 M83      -0.694500
      4 C9          36.1230     2.6520    34.2970 cc         1 M83       0.155500
      5 C8          34.7850     2.4200    34.5300 cd         1 M83      -0.222000
      6 C7          34.6280     2.1960    35.9150 cd         1 M83      -0.155000
      7 O2          36.8180     2.5820    35.4920 os         1 M83      -0.222000
      8 C6          35.8810     2.3000    36.4580 cc         1 M83       0.095500
      9 C5          36.2320     2.1500    37.8770 ca         1 M83      -0.071500
     10 C4          37.5590     2.3830    38.2970 ca         1 M83      -0.076000
     11 C3          37.9180     2.2450    39.6490 ca         1 M83      -0.118000
     12 C2          36.9550     1.8730    40.6000 ca         1 M83      -0.098000
     13 C11         35.2700     1.7740    38.8420 ca         1 M83      -0.080000
     14 C1          35.6270     1.6360    40.1990 ca         1 M83      -0.035000
     15 C           34.6380     1.2520    41.1700 cg         1 M83       0.344000
     16 N           33.8280     0.9400    41.9520 n1         1 M83      -0.495000
     17 H2          34.0010     2.4140    33.7800 ha         1 M83       0.142000
     18 H3          33.6980     1.9870    36.4320 ha         1 M83       0.114000
     19 H4          38.3200     2.6730    37.5760 ha         1 M83       0.147000
     20 H5          38.9440     2.4290    39.9590 ha         1 M83       0.111000
     21 H6          37.2420     1.7690    41.6450 ha         1 M83       0.111000
     22 H7          34.2410     1.5840    38.5490 ha         1 M83       0.123000
@<TRIPOS>BOND
     1     1     2 1   
     2     2     3 1   
     3     2     4 1   
     4     4     5 2   
     5     4     7 1   
     6     5     6 1   
     7     5    17 1   
     8     6     8 2   
     9     6    18 1   
    10     7     8 1   
    11     8     9 1   
    12     9    10 ar  
    13     9    13 ar  
    14    10    11 ar  
    15    10    19 1   
    16    11    12 ar  
    17    11    20 1   
    18    12    14 ar  
    19    12    21 1   
    20    13    14 ar  
    21    13    22 1   
    22    14    15 1   
    23    15    16 3   
@<TRIPOS>SUBSTRUCTURE
     1 M83         1 TEMP              0 ****  ****    0 ROOT
