@<TRIPOS>MOLECULE
M83
   22    23     1     0     0
SMALL
abcg2


@<TRIPOS>ATOM
      1 O1          36.2810     3.0060    32.0320 o          1 M83      -0.694500
      2 C10         36.9080     2.9370    33.1190 c          1 M83       0.618500
      3 O           38.1410     3.0820    33.3000 o          1 M83      -0.694500
      4 C9          36.0660     2.6450    34.3280 cc         1 M83       0.155500
      5 C8          34.7290     2.4180    34.4910 cd         1 M83      -0.222000
      6 C7          34.5100     2.1850    35.8760 cd         1 M83      -0.155000
      7 O2          36.6820     2.5640    35.5490 os         1 M83      -0.222000
      8 C6          35.7330     2.2840    36.4860 cc         1 M83       0.095500
      9 C5          36.1690     2.1520    37.8640 ca         1 M83      -0.071500
     10 C4          37.5020     2.3850    38.2320 ca         1 M83      -0.076000
     11 C3          37.9110     2.2530    39.5520 ca         1 M83      -0.118000
     12 C2          37.0080     1.8850    40.5390 ca         1 M83      -0.098000
     13 C11         35.2550     1.7830    38.8550 ca         1 M83      -0.080000
     14 C1          35.6750     1.6510    40.1780 ca         1 M83      -0.035000
     15 C           34.7300     1.2630    41.1750 cg         1 M83       0.344000
     16 N           33.9680     0.9450    41.9820 n1         1 M83      -0.495000
     17 H2          33.9920     2.4190    33.7060 ha         1 M83       0.142000
     18 H3          33.5700     1.9730    36.3590 ha         1 M83       0.114000
     19 H4          38.2180     2.6720    37.4750 ha         1 M83       0.147000
     20 H5          38.9440     2.4380    39.8140 ha         1 M83       0.111000
     21 H6          37.3190     1.7770    41.5680 ha         1 M83       0.111000
     22 H7          34.2210     1.5920    38.6050 ha         1 M83       0.123000
@<TRIPOS>BOND
     1     1     2 1   
     2     2     3 1   
     3     2     4 1   
     4     4     5 2   
     5     4     7 1   
     6     5     6 1   
     7     5    17 1   
     8     6     8 2   
     9     6    18 1   
    10     7     8 1   
    11     8     9 1   
    12     9    10 ar  
    13     9    13 ar  
    14    10    11 ar  
    15    10    19 1   
    16    11    12 ar  
    17    11    20 1   
    18    12    14 ar  
    19    12    21 1   
    20    13    14 ar  
    21    13    22 1   
    22    14    15 1   
    23    15    16 3   
@<TRIPOS>SUBSTRUCTURE
     1 M83         1 TEMP              0 ****  ****    0 ROOT
