@<TRIPOS>MOLECULE
M84
   34    35     1     0     0
SMALL
No Charge or Current Charge


@<TRIPOS>ATOM
      1 O4B          2.4660    -2.0080    -0.1090 o          1 M84      -0.589100
      2 C4B          2.6790    -0.8020    -0.0390 c          1 M84       0.613700
      3 CW2          4.0930    -0.2500    -0.1410 ca         1 M84      -0.145600
      4 CW3          5.1770    -1.1420    -0.3220 ca         1 M84      -0.073000
      5 CW4          6.4950    -0.6640    -0.4200 ca         1 M84      -0.123000
      6 CW5          6.7530     0.7130    -0.3410 ca         1 M84      -0.097000
      7 CW6          5.6910     1.6110    -0.1620 ca         1 M84      -0.123000
      8 CW7          4.3700     1.1390    -0.0630 ca         1 M84      -0.073000
      9 NB4          1.6740     0.1450     0.1410 ns         1 M84      -0.133000
     10 CB4          0.2590     0.0410     0.2680 ca         1 M84      -0.061000
     11 CB3         -0.4580     1.2270     0.5150 ca         1 M84      -0.148000
     12 CB2         -1.8570     1.2060     0.6500 ca         1 M84      -0.094000
     13 CB5         -0.4530    -1.1730     0.1540 ca         1 M84      -0.148000
     14 CB6         -1.8530    -1.1930     0.2900 ca         1 M84      -0.094000
     15 CB1         -2.5630    -0.0050     0.5410 ca         1 M84      -0.059300
     16 C3B         -4.0800    -0.0280     0.6850 c3         1 M84      -0.021100
     17 C2B         -4.8010     0.1830    -0.6660 c3         1 M84      -0.203400
     18 C1B         -6.3240     0.1500    -0.4600 c          1 M84       0.717000
     19 O1B         -6.8920    -0.9300    -0.5230 o          1 M84      -0.739500
     20 OXT         -6.8920     1.1980    -0.1910 o          1 M84      -0.739500
     21 HB4          2.0110     1.0960     0.1910 hn         1 M84       0.145000
     22 HW3          5.0020    -2.2140    -0.3870 ha         1 M84       0.126000
     23 HW7          3.5770     1.8700     0.0750 ha         1 M84       0.126000
     24 HW4          7.3170    -1.3630    -0.5590 ha         1 M84       0.112500
     25 HW5          7.7740     1.0820    -0.4170 ha         1 M84       0.109000
     26 HW6          5.8900     2.6790    -0.1000 ha         1 M84       0.112500
     27 HB3          0.0700     2.1740     0.6030 ha         1 M84       0.113500
     28 HB5          0.0530    -2.1120    -0.0440 ha         1 M84       0.113500
     29 HB2         -2.3920     2.1340     0.8390 ha         1 M84       0.115500
     30 HB6         -2.3880    -2.1350     0.1960 ha         1 M84       0.115500
     31 H3B1        -4.4000    -0.9830     1.1200 hc         1 M84       0.051700
     32 H3B2        -4.4010     0.7480     1.3910 hc         1 M84       0.051700
     33 H2B1        -4.4820     1.1690    -1.0260 hc         1 M84       0.021200
     34 H2B2        -4.4820    -0.6470    -1.3090 hc         1 M84       0.021200
@<TRIPOS>BOND
     1     1     2 2   
     2     2     3 1   
     3     2     9 1   
     4     3     4 ar  
     5     3     8 ar  
     6     4     5 ar  
     7     4    22 1   
     8     5     6 ar  
     9     5    24 1   
    10     6     7 ar  
    11     6    25 1   
    12     7     8 ar  
    13     7    26 1   
    14     8    23 1   
    15     9    10 1   
    16     9    21 1   
    17    10    11 ar  
    18    10    13 ar  
    19    11    12 ar  
    20    11    27 1   
    21    12    15 ar  
    22    12    29 1   
    23    13    14 ar  
    24    13    28 1   
    25    14    15 ar  
    26    14    30 1   
    27    15    16 1   
    28    16    17 1   
    29    16    31 1   
    30    16    32 1   
    31    17    18 1   
    32    17    33 1   
    33    17    34 1   
    34    18    19 1   
    35    18    20 1   
@<TRIPOS>SUBSTRUCTURE
     1 M84         1 TEMP              0 ****  ****    0 ROOT
