@<TRIPOS>MOLECULE
M84
   34    35     1     0     0
SMALL
bcc


@<TRIPOS>ATOM
      1 O4B          2.3660    -1.8470    -0.5650 o          1 M84      -0.589100
      2 C4B          2.6080    -0.7050    -0.2100 c          1 M84       0.680700
      3 CW2          4.0040    -0.1710    -0.2440 ca         1 M84      -0.145600
      4 CW3          5.0520    -1.0790    -0.1120 ca         1 M84      -0.091000
      5 CW4          6.3670    -0.6430    -0.1540 ca         1 M84      -0.141000
      6 CW5          6.6490     0.7030    -0.3510 ca         1 M84      -0.115000
      7 CW6          5.6100     1.6100    -0.5050 ca         1 M84      -0.141000
      8 CW7          4.2930     1.1780    -0.4480 ca         1 M84      -0.091000
      9 NB4          1.6730     0.1600     0.2490 ns         1 M84      -0.459100
     10 CB4          0.2860    -0.0080     0.3520 ca         1 M84       0.031600
     11 CB3         -0.4340     1.0540     0.9040 ca         1 M84      -0.166000
     12 CB2         -1.8100     0.9840     1.0390 ca         1 M84      -0.112000
     13 CB5         -0.4110    -1.1440    -0.0580 ca         1 M84      -0.166000
     14 CB6         -1.7920    -1.1920     0.0860 ca         1 M84      -0.112000
     15 CB1         -2.5220    -0.1420     0.6310 ca         1 M84      -0.059300
     16 C3B         -4.0210    -0.1990     0.7230 c3         1 M84      -0.021100
     17 C2B         -4.6830     0.3410    -0.5430 c3         1 M84      -0.203400
     18 C1B         -6.2220     0.2980    -0.5570 c          1 M84       0.927600
     19 O1B         -6.7990    -0.2430     0.4070 o          1 M84      -0.844800
     20 OXT         -6.7700     0.8140    -1.5530 o          1 M84      -0.844800
     21 HB4          2.0110     1.0360     0.6170 hn         1 M84       0.311500
     22 HW3          4.8400    -2.1300     0.0320 ha         1 M84       0.144000
     23 HW7          3.5030     1.9030    -0.5960 ha         1 M84       0.144000
     24 HW4          7.1730    -1.3550    -0.0350 ha         1 M84       0.130500
     25 HW5          7.6760     1.0420    -0.3920 ha         1 M84       0.127000
     26 HW6          5.8220     2.6570    -0.6750 ha         1 M84       0.130500
     27 HB3          0.0890     1.9430     1.2360 ha         1 M84       0.131500
     28 HB5          0.1010    -1.9910    -0.4820 ha         1 M84       0.131500
     29 HB2         -2.3350     1.8270     1.4730 ha         1 M84       0.133500
     30 HB6         -2.3100    -2.0860    -0.2400 ha         1 M84       0.133500
     31 H3B1        -4.3400    -1.2290     0.8920 hc         1 M84       0.051700
     32 H3B2        -4.3610     0.3760     1.5880 hc         1 M84       0.051700
     33 H2B1        -4.3620     1.3730    -0.7160 hc         1 M84       0.021200
     34 H2B2        -4.3170    -0.2190    -1.4110 hc         1 M84       0.021200
@<TRIPOS>BOND
     1     1     2 2   
     2     2     3 1   
     3     2     9 1   
     4     3     4 ar  
     5     3     8 ar  
     6     4     5 ar  
     7     4    22 1   
     8     5     6 ar  
     9     5    24 1   
    10     6     7 ar  
    11     6    25 1   
    12     7     8 ar  
    13     7    26 1   
    14     8    23 1   
    15     9    10 1   
    16     9    21 1   
    17    10    11 ar  
    18    10    13 ar  
    19    11    12 ar  
    20    11    27 1   
    21    12    15 ar  
    22    12    29 1   
    23    13    14 ar  
    24    13    28 1   
    25    14    15 ar  
    26    14    30 1   
    27    15    16 1   
    28    16    17 1   
    29    16    31 1   
    30    16    32 1   
    31    17    18 1   
    32    17    33 1   
    33    17    34 1   
    34    18    19 1   
    35    18    20 1   
@<TRIPOS>SUBSTRUCTURE
     1 M84         1 TEMP              0 ****  ****    0 ROOT
