@<TRIPOS>MOLECULE
M85
   41    43     1     0     0
SMALL
abcg2


@<TRIPOS>ATOM
      1 N01         -4.4000    -0.1470    -1.1590 nb         1 M85      -0.759000
      2 C02         -5.5320    -0.7170    -0.8150 ca         1 M85       0.618900
      3 N02         -6.4900    -0.8680    -1.7620 nv         1 M85      -1.071900
      4 C03         -5.8050    -1.1470     0.5220 ca         1 M85      -0.208000
      5 C04         -4.8580    -0.9600     1.4750 ca         1 M85      -0.029000
      6 C05         -3.6260    -0.3440     1.1370 ca         1 M85      -0.122000
      7 C06         -2.5950    -0.1130     2.0690 ca         1 M85      -0.078000
      8 C07         -1.4270     0.4890     1.6830 ca         1 M85      -0.105000
      9 C08         -1.2440     0.8860     0.3410 ca         1 M85      -0.071300
     10 C09         -2.2370     0.6630    -0.5800 ca         1 M85      -0.082000
     11 C10         -3.4540     0.0470    -0.2110 ca         1 M85       0.323000
     12 C11          0.0400     1.5390    -0.0710 c3         1 M85       0.209900
     13 O12          1.0610     0.5560     0.0010 os         1 M85      -0.342100
     14 C21          4.6220     0.1720    -0.4800 ca         1 M85      -0.056300
     15 C22          4.9950     1.4550    -0.8800 ca         1 M85      -0.148000
     16 C23          4.0380     2.4490    -0.9930 ca         1 M85      -0.076000
     17 C24          2.7010     2.1960    -0.7070 ca         1 M85      -0.199000
     18 C25          2.3280     0.9170    -0.3010 ca         1 M85       0.138100
     19 C26          3.2910    -0.0870    -0.1880 ca         1 M85      -0.123000
     20 N28          5.4390    -1.7960     0.7410 n7         1 M85      -0.858400
     21 C29          6.4160    -2.8640     0.8060 c3         1 M85       0.144100
     22 HN02        -6.2180    -0.7590    -2.7250 hn         1 M85       0.480000
     23 HN0A        -7.2460    -1.5080    -1.5940 hn         1 M85       0.480000
     24 H03         -6.7520    -1.6140     0.7570 ha         1 M85       0.120000
     25 H04         -5.0370    -1.2770     2.4950 ha         1 M85       0.117000
     26 H06         -2.7400    -0.4140     3.1000 ha         1 M85       0.113000
     27 H07         -0.6450     0.6700     2.4100 ha         1 M85       0.120000
     28 H09         -2.1050     0.9580    -1.6150 ha         1 M85       0.129000
     29 H11         -0.0450     1.9390    -1.0870 h1         1 M85       0.041700
     30 H11A         0.2730     2.3760     0.5980 h1         1 M85       0.041700
     31 H22          6.0330     1.6730    -1.0980 ha         1 M85       0.111000
     32 H23          4.3300     3.4450    -1.3020 ha         1 M85       0.110000
     33 H24          1.9820     2.9970    -0.8020 ha         1 M85       0.115000
     34 H26          2.9900    -1.0760     0.1360 ha         1 M85       0.144000
     35 H27          5.5970    -1.5350    -1.3020 h1         1 M85       0.037200
     36 H27A         6.6580    -0.4700    -0.4060 h1         1 M85       0.037200
     37 HN28         5.4870    -1.2480     1.5910 hn         1 M85       0.411000
     38 H29          6.2980    -3.5280    -0.0520 h1         1 M85       0.029367
     39 H29A         7.4600    -2.5180     0.8120 h1         1 M85       0.029367
     40 H29B         6.2560    -3.4570     1.7060 h1         1 M85       0.029367
     41 C27          5.6540    -0.9230    -0.3940 c3         1 M85       0.201100
@<TRIPOS>BOND
     1     1     2 ar  
     2     1    11 ar  
     3     2     3 1   
     4     2     4 ar  
     5     3    22 1   
     6     3    23 1   
     7     4     5 ar  
     8     4    24 1   
     9     5     6 ar  
    10     5    25 1   
    11     6     7 ar  
    12     6    11 ar  
    13     7     8 ar  
    14     7    26 1   
    15     8     9 ar  
    16     8    27 1   
    17     9    10 ar  
    18     9    12 1   
    19    10    11 ar  
    20    10    28 1   
    21    12    13 1   
    22    12    29 1   
    23    12    30 1   
    24    13    18 1   
    25    14    15 ar  
    26    14    19 ar  
    27    14    41 1   
    28    15    16 ar  
    29    15    31 1   
    30    16    17 ar  
    31    16    32 1   
    32    17    18 ar  
    33    17    33 1   
    34    18    19 ar  
    35    19    34 1   
    36    20    21 1   
    37    20    37 1   
    38    20    41 1   
    39    21    38 1   
    40    21    39 1   
    41    21    40 1   
    42    35    41 1   
    43    36    41 1   
@<TRIPOS>SUBSTRUCTURE
     1 M85         1 TEMP              0 ****  ****    0 ROOT
