@<TRIPOS>MOLECULE
M85
   41    43     1     0     0
SMALL
No Charge or Current Charge


@<TRIPOS>ATOM
      1 N01         -4.2380    -0.3970    -1.2370 nb         1 M85      -0.759000
      2 C02         -5.4110    -0.9380    -0.9440 ca         1 M85       0.618900
      3 N02         -6.0530    -1.3100    -2.0530 nv         1 M85      -1.071900
      4 C03         -5.9170    -1.1180     0.3450 ca         1 M85      -0.208000
      5 C04         -5.1350    -0.6910     1.4260 ca         1 M85      -0.029000
      6 C05         -3.8850    -0.1080     1.1460 ca         1 M85      -0.122000
      7 C06         -3.0610     0.3360     2.1970 ca         1 M85      -0.078000
      8 C07         -1.8150     0.9170     1.9150 ca         1 M85      -0.105000
      9 C08         -1.3830     1.0580     0.5840 ca         1 M85      -0.071300
     10 C09         -2.2120     0.6080    -0.4640 ca         1 M85      -0.082000
     11 C10         -3.4660     0.0240    -0.2050 ca         1 M85       0.323000
     12 C11         -0.0310     1.6850     0.2740 c3         1 M85       0.209900
     13 O12          0.9360     0.6320     0.1240 os         1 M85      -0.342100
     14 C21          4.4920    -0.0230    -0.5850 ca         1 M85      -0.056300
     15 C22          4.9860     1.2860    -0.7510 ca         1 M85      -0.148000
     16 C23          4.1260     2.3900    -0.6260 ca         1 M85      -0.076000
     17 C24          2.7650     2.1950    -0.3340 ca         1 M85      -0.199000
     18 C25          2.2610     0.8860    -0.1650 ca         1 M85       0.138100
     19 C26          3.1280    -0.2120    -0.2910 ca         1 M85      -0.123000
     20 N28          5.8890    -1.6780     0.5990 n7         1 M85      -0.858400
     21 C29          6.8280    -2.8160     0.5740 c3         1 M85       0.144100
     22 HN02        -5.4680    -1.3390    -2.8790 hn         1 M85       0.480000
     23 HN0A        -6.7480    -2.0430    -1.9670 hn         1 M85       0.480000
     24 H03         -6.8890    -1.5740     0.5030 ha         1 M85       0.120000
     25 H04         -5.4880    -0.8090     2.4490 ha         1 M85       0.117000
     26 H06         -3.3840     0.2330     3.2310 ha         1 M85       0.113000
     27 H07         -1.1830     1.2560     2.7340 ha         1 M85       0.120000
     28 H09         -1.8800     0.7110    -1.4930 ha         1 M85       0.129000
     29 H11         -0.1060     2.2760    -0.6480 h1         1 M85       0.041700
     30 H11A         0.2560     2.3600     1.0910 h1         1 M85       0.041700
     31 H22          6.0370     1.4480    -0.9770 ha         1 M85       0.111000
     32 H23          4.5150     3.3980    -0.7560 ha         1 M85       0.110000
     33 H24          2.1220     3.0660    -0.2430 ha         1 M85       0.115000
     34 H26          2.7370    -1.2170    -0.1570 ha         1 M85       0.144000
     35 H27          4.8860    -2.0320    -1.2410 h1         1 M85       0.037200
     36 H27A         6.2760    -0.9430    -1.3570 h1         1 M85       0.037200
     37 HN28         6.3580    -0.8840     1.0520 hn         1 M85       0.411000
     38 H29          6.3660    -3.6940     0.1010 h1         1 M85       0.029367
     39 H29A         7.7380    -2.5620     0.0130 h1         1 M85       0.029367
     40 H29B         7.1220    -3.0960     1.5940 h1         1 M85       0.029367
     41 C27          5.4220    -1.2230    -0.7240 c3         1 M85       0.201100
@<TRIPOS>BOND
     1     1     2 ar  
     2     1    11 ar  
     3     2     3 1   
     4     2     4 ar  
     5     3    22 1   
     6     3    23 1   
     7     4     5 ar  
     8     4    24 1   
     9     5     6 ar  
    10     5    25 1   
    11     6     7 ar  
    12     6    11 ar  
    13     7     8 ar  
    14     7    26 1   
    15     8     9 ar  
    16     8    27 1   
    17     9    10 ar  
    18     9    12 1   
    19    10    11 ar  
    20    10    28 1   
    21    12    13 1   
    22    12    29 1   
    23    12    30 1   
    24    13    18 1   
    25    14    15 ar  
    26    14    19 ar  
    27    14    41 1   
    28    15    16 ar  
    29    15    31 1   
    30    16    17 ar  
    31    16    32 1   
    32    17    18 ar  
    33    17    33 1   
    34    18    19 ar  
    35    19    34 1   
    36    20    21 1   
    37    20    37 1   
    38    20    41 1   
    39    21    38 1   
    40    21    39 1   
    41    21    40 1   
    42    35    41 1   
    43    36    41 1   
@<TRIPOS>SUBSTRUCTURE
     1 M85         1 TEMP              0 ****  ****    0 ROOT
