@<TRIPOS>MOLECULE
M86
   80    82     1     0     0
SMALL
No Charge or Current Charge


@<TRIPOS>ATOM
      1 O10         -4.1790    -0.7200    -1.0340 o          1 M86      -0.543500
      2 S8          -4.2600     0.2190     0.0900 sy         1 M86       1.189600
      3 O9          -5.5350     0.5980     0.7080 o          1 M86      -0.543500
      4 C5          -3.1790    -0.3720     1.4050 ca         1 M86      -0.342500
      5 C6          -3.1940     0.2690     2.6590 ca         1 M86       0.024000
      6 C7          -2.3020    -0.1420     3.6630 ca         1 M86      -0.196500
      7 C4          -2.3060    -1.4550     1.1800 ca         1 M86       0.024000
      8 C3          -1.4190    -1.8610     2.1900 ca         1 M86      -0.196500
      9 C2          -1.4030    -1.1930     3.4310 ca         1 M86       0.197100
     10 O1          -0.5230    -1.5240     4.4410 os         1 M86      -0.334100
     11 C1           0.5340    -2.4800     4.2490 c3         1 M86       0.145900
     12 N11         -3.5200     1.6820    -0.4170 n3         1 M86      -0.773500
     13 C12         -3.9090     2.1470    -1.7720 c3         1 M86       0.234800
     14 C13         -5.4030     2.5360    -1.9650 c3         1 M86      -0.080700
     15 C14         -5.8230     3.6780    -1.0020 c3         1 M86      -0.082100
     16 C15         -5.6780     2.8910    -3.4540 c3         1 M86      -0.070400
     17 C18         -7.1640     3.1310    -3.8010 c3         1 M86      -0.087100
     18 C16         -2.0620     1.8370    -0.1390 c3         1 M86       0.187800
     19 C17         -1.0870     0.9630    -0.9980 c3         1 M86       0.125300
     20 O18         -0.7730     1.6130    -2.2530 oh         1 M86      -0.648000
     21 C19          0.2220     0.5810    -0.2380 c3         1 M86       0.096700
     22 C32          1.0620     1.7810     0.2780 c3         1 M86      -0.054100
     23 C38          2.2460     1.3290     1.1270 ca         1 M86      -0.087300
     24 C37          2.0350     0.8750     2.4440 ca         1 M86      -0.097000
     25 C36          3.1170     0.4320     3.2240 ca         1 M86      -0.108500
     26 C35          4.4170     0.4410     2.6920 ca         1 M86      -0.110000
     27 C34          4.6350     0.8930     1.3790 ca         1 M86      -0.108500
     28 C33          3.5530     1.3350     0.5980 ca         1 M86      -0.097000
     29 N20          1.0590    -0.3030    -1.0580 ns         1 M86      -0.490900
     30 C21          1.6550    -1.4510    -0.6220 c          1 M86       0.645100
     31 O22          1.4910    -1.9660     0.4720 o          1 M86      -0.545000
     32 O23          2.5150    -1.8810    -1.5840 os         1 M86      -0.453100
     33 C22          3.3390    -3.0240    -1.2860 c3         1 M86       0.151600
     34 C23          4.4240    -3.1390    -2.3790 c3         1 M86       0.109000
     35 N24          5.2810    -1.9340    -2.4890 n          1 M86      -0.415800
     36 C25          6.2370    -1.4820    -1.4660 c5         1 M86       0.077000
     37 C28          5.1840    -1.0600    -3.5520 c          1 M86       0.589000
     38 O29          4.4710    -1.1820    -4.5330 o          1 M86      -0.567000
     39 N27          6.0300    -0.0230    -3.3360 ns         1 M86      -0.490900
     40 C26          6.7570    -0.1260    -2.0650 c5         1 M86       0.067000
     41 H1          -3.8710     1.1020     2.8470 ha         1 M86       0.134500
     42 H2          -2.2970     0.3680     4.6220 ha         1 M86       0.128000
     43 H3          -2.2910    -1.9720     0.2210 ha         1 M86       0.134500
     44 H4          -0.7440    -2.6860     1.9850 ha         1 M86       0.128000
     45 H5           1.1380    -2.5670     5.1600 h1         1 M86       0.046033
     46 H6           0.1270    -3.4720     4.0150 h1         1 M86       0.046033
     47 H7           1.1960    -2.1690     3.4300 h1         1 M86       0.046033
     48 H8          -3.3180     3.0360    -2.0310 h1         1 M86       0.047700
     49 H9          -3.6460     1.3800    -2.5140 h1         1 M86       0.047700
     50 H10         -6.0180     1.6590    -1.7330 hc         1 M86       0.078700
     51 H11         -6.9000     3.8740    -1.0640 hc         1 M86       0.032367
     52 H12         -5.6000     3.4180     0.0390 hc         1 M86       0.032367
     53 H13         -5.2890     4.6050    -1.2420 hc         1 M86       0.032367
     54 H14         -5.0990     3.7810    -3.7310 hc         1 M86       0.035200
     55 H15         -5.3120     2.0720    -4.0860 hc         1 M86       0.035200
     56 H16         -7.2820     3.2670    -4.8820 hc         1 M86       0.033700
     57 H17         -7.7780     2.2750    -3.4960 hc         1 M86       0.033700
     58 H18         -7.5480     4.0310    -3.3070 hc         1 M86       0.033700
     59 H19         -1.7840     2.8890    -0.2900 h1         1 M86       0.071700
     60 H20         -1.8550     1.6590     0.9230 h1         1 M86       0.071700
     61 H21         -1.5960     0.0140    -1.2080 h1         1 M86       0.090700
     62 H22         -0.2990     2.4470    -2.0500 ho         1 M86       0.438000
     63 H23         -0.0890     0.0140     0.6490 h1         1 M86       0.095700
     64 H24          1.4110     2.3780    -0.5740 hc         1 M86       0.050700
     65 H25          0.4300     2.4470     0.8770 hc         1 M86       0.050700
     66 H26          1.0310     0.8580     2.8620 ha         1 M86       0.114000
     67 H27          2.9470     0.0800     4.2390 ha         1 M86       0.112500
     68 H28          5.2550     0.0980     3.2950 ha         1 M86       0.109000
     69 H29          5.6410     0.9000     0.9670 ha         1 M86       0.112500
     70 H30          3.7290     1.6730    -0.4210 ha         1 M86       0.114000
     71 H31          1.2960    -0.0140    -1.9970 hn         1 M86       0.337500
     72 H32          3.8340    -2.9050    -0.3130 h1         1 M86       0.054700
     73 H33          2.7390    -3.9430    -1.2570 h1         1 M86       0.054700
     74 H34          5.0640    -4.0000    -2.1480 h1         1 M86       0.072200
     75 H35          3.9380    -3.3450    -3.3410 h1         1 M86       0.072200
     76 H36          5.7450    -1.3300    -0.4960 h1         1 M86       0.054700
     77 H37          7.0530    -2.2050    -1.3360 h1         1 M86       0.054700
     78 H38          6.0930     0.7230    -4.0180 hn         1 M86       0.318500
     79 H39          6.5280     0.7170    -1.3990 h1         1 M86       0.049700
     80 H40          7.8440    -0.1510    -2.2190 h1         1 M86       0.049700
@<TRIPOS>BOND
     1     1     2 2   
     2     2     3 2   
     3     2     4 1   
     4     2    12 1   
     5     4     5 ar  
     6     4     7 ar  
     7     5     6 ar  
     8     5    41 1   
     9     6     9 ar  
    10     6    42 1   
    11     7     8 ar  
    12     7    43 1   
    13     8     9 ar  
    14     8    44 1   
    15     9    10 1   
    16    10    11 1   
    17    11    45 1   
    18    11    46 1   
    19    11    47 1   
    20    12    13 1   
    21    12    18 1   
    22    13    14 1   
    23    13    48 1   
    24    13    49 1   
    25    14    15 1   
    26    14    16 1   
    27    14    50 1   
    28    15    51 1   
    29    15    52 1   
    30    15    53 1   
    31    16    17 1   
    32    16    54 1   
    33    16    55 1   
    34    17    56 1   
    35    17    57 1   
    36    17    58 1   
    37    18    19 1   
    38    18    59 1   
    39    18    60 1   
    40    19    20 1   
    41    19    21 1   
    42    19    61 1   
    43    20    62 1   
    44    21    22 1   
    45    21    29 1   
    46    21    63 1   
    47    22    23 1   
    48    22    64 1   
    49    22    65 1   
    50    23    24 ar  
    51    23    28 ar  
    52    24    25 ar  
    53    24    66 1   
    54    25    26 ar  
    55    25    67 1   
    56    26    27 ar  
    57    26    68 1   
    58    27    28 ar  
    59    27    69 1   
    60    28    70 1   
    61    29    30 1   
    62    29    71 1   
    63    30    31 2   
    64    30    32 1   
    65    32    33 1   
    66    33    34 1   
    67    33    72 1   
    68    33    73 1   
    69    34    35 1   
    70    34    74 1   
    71    34    75 1   
    72    35    36 1   
    73    35    37 1   
    74    36    40 1   
    75    36    76 1   
    76    36    77 1   
    77    37    38 2   
    78    37    39 1   
    79    39    40 1   
    80    39    78 1   
    81    40    79 1   
    82    40    80 1   
@<TRIPOS>SUBSTRUCTURE
     1 M86         1 TEMP              0 ****  ****    0 ROOT
