@<TRIPOS>MOLECULE
M86
   80    82     1     0     0
SMALL
bcc


@<TRIPOS>ATOM
      1 O10         -5.3890     0.5790     1.1200 o          1 M86      -0.614300
      2 S8          -3.9430     0.4910     1.2590 sy         1 M86       1.331200
      3 O9          -3.3040     0.9680     2.4760 o          1 M86      -0.614300
      4 C5          -3.5110    -1.2140     1.0750 ca         1 M86      -0.342500
      5 C6          -2.4080    -1.7320     1.7510 ca         1 M86       0.006000
      6 C7          -2.0440    -3.0490     1.5660 ca         1 M86      -0.214500
      7 C4          -4.2580    -2.0300     0.2380 ca         1 M86       0.006000
      8 C3          -3.8950    -3.3540     0.0470 ca         1 M86      -0.214500
      9 C2          -2.7800    -3.8720     0.7070 ca         1 M86       0.197100
     10 O1          -2.3520    -5.1320     0.5850 os         1 M86      -0.310900
     11 C1          -3.0600    -6.0150    -0.2690 c3         1 M86       0.122700
     12 N11         -3.2880     1.3250     0.0050 n3         1 M86      -0.773500
     13 C12         -3.9990     1.3590    -1.2760 c3         1 M86       0.234800
     14 C13         -4.9930     2.5120    -1.4150 c3         1 M86      -0.080700
     15 C14         -4.3130     3.8610    -1.2130 c3         1 M86      -0.082100
     16 C15         -5.6730     2.4020    -2.7820 c3         1 M86      -0.070400
     17 C18         -6.8080     3.3950    -2.9950 c3         1 M86      -0.087100
     18 C16         -1.8990     1.7600     0.0710 c3         1 M86       0.187800
     19 C17         -0.8660     0.7130    -0.3520 c3         1 M86       0.102100
     20 O18         -0.8930     0.4400    -1.7340 oh         1 M86      -0.585800
     21 C19          0.5390     1.0880     0.1400 c3         1 M86       0.096700
     22 C32          1.0600     2.4120    -0.4410 c3         1 M86      -0.054100
     23 C38          2.3910     2.7800     0.1500 ca         1 M86      -0.087300
     24 C37          2.4550     3.4850     1.3510 ca         1 M86      -0.115000
     25 C36          3.6760     3.7870     1.9360 ca         1 M86      -0.126500
     26 C35          4.8580     3.3840     1.3260 ca         1 M86      -0.128000
     27 C34          4.8050     2.6830     0.1300 ca         1 M86      -0.126500
     28 C33          3.5810     2.3820    -0.4520 ca         1 M86      -0.115000
     29 N20          1.4550     0.0130    -0.1490 ns         1 M86      -0.557900
     30 C21          2.2620    -0.5440     0.7730 c          1 M86       0.761100
     31 O22          2.2220    -0.3400     1.9680 o          1 M86      -0.594000
     32 O23          3.1160    -1.3870     0.1840 os         1 M86      -0.429900
     33 C22          4.0260    -2.1100     1.0050 c3         1 M86       0.128400
     34 C23          5.1080    -2.6670     0.1010 c3         1 M86       0.109000
     35 N24          5.8930    -1.6570    -0.5550 n          1 M86      -0.482800
     36 C25          6.7130    -0.7220     0.1880 c5         1 M86       0.077000
     37 C28          5.6020    -1.1630    -1.7950 c          1 M86       0.798500
     38 O29          4.8400    -1.6530    -2.6110 o          1 M86      -0.642500
     39 N27          6.3360    -0.0170    -1.9630 ns         1 M86      -0.557900
     40 C26          7.3590     0.0760    -0.9410 c5         1 M86       0.067000
     41 H1          -1.8300    -1.1140     2.4260 ha         1 M86       0.152500
     42 H2          -1.1880    -3.4540     2.0910 ha         1 M86       0.146000
     43 H3          -5.1390    -1.6570    -0.2670 ha         1 M86       0.152500
     44 H4          -4.4970    -3.9650    -0.6120 ha         1 M86       0.146000
     45 H5          -2.5410    -6.9690    -0.2210 h1         1 M86       0.046033
     46 H6          -4.0920    -6.1570     0.0610 h1         1 M86       0.046033
     47 H7          -3.0600    -5.6640    -1.3030 h1         1 M86       0.046033
     48 H8          -3.2450     1.4330    -2.0600 h1         1 M86       0.047700
     49 H9          -4.5060     0.4080    -1.4540 h1         1 M86       0.047700
     50 H10         -5.7620     2.3930    -0.6450 hc         1 M86       0.078700
     51 H11         -5.0270     4.6820    -1.2710 hc         1 M86       0.032367
     52 H12         -3.8370     3.9230    -0.2340 hc         1 M86       0.032367
     53 H13         -3.5470     4.0340    -1.9740 hc         1 M86       0.032367
     54 H14         -4.9230     2.5260    -3.5710 hc         1 M86       0.035200
     55 H15         -6.0680     1.3870    -2.8990 hc         1 M86       0.035200
     56 H16         -7.3080     3.2170    -3.9470 hc         1 M86       0.033700
     57 H17         -7.5580     3.3080    -2.2060 hc         1 M86       0.033700
     58 H18         -6.4540     4.4260    -3.0020 hc         1 M86       0.033700
     59 H19         -1.8220     2.6490    -0.5600 h1         1 M86       0.071700
     60 H20         -1.6780     2.1020     1.0830 h1         1 M86       0.071700
     61 H21         -1.1140    -0.2360     0.1270 h1         1 M86       0.090700
     62 H22         -0.7440     1.2560    -2.2240 ho         1 M86       0.399000
     63 H23          0.4850     1.1860     1.2260 h1         1 M86       0.095700
     64 H24          1.1530     2.3300    -1.5280 hc         1 M86       0.050700
     65 H25          0.3360     3.2060    -0.2460 hc         1 M86       0.050700
     66 H26          1.5370     3.8020     1.8330 ha         1 M86       0.132000
     67 H27          3.7060     4.3390     2.8660 ha         1 M86       0.130500
     68 H28          5.8130     3.6170     1.7790 ha         1 M86       0.127000
     69 H29          5.7190     2.3700    -0.3590 ha         1 M86       0.130500
     70 H30          3.5570     1.8330    -1.3870 ha         1 M86       0.132000
     71 H31          1.6160    -0.2160    -1.1180 hn         1 M86       0.337500
     72 H32          4.4560    -1.4620     1.7720 h1         1 M86       0.054700
     73 H33          3.5150    -2.9330     1.5110 h1         1 M86       0.054700
     74 H34          5.7660    -3.2880     0.7130 h1         1 M86       0.072200
     75 H35          4.6710    -3.3160    -0.6580 h1         1 M86       0.072200
     76 H36          6.1060    -0.0720     0.8290 h1         1 M86       0.054700
     77 H37          7.4430    -1.2360     0.8130 h1         1 M86       0.054700
     78 H38          6.5430     0.2720    -2.9060 hn         1 M86       0.318500
     79 H39          7.5660     1.1060    -0.6560 h1         1 M86       0.049700
     80 H40          8.2980    -0.3870    -1.2620 h1         1 M86       0.049700
@<TRIPOS>BOND
     1     1     2 2   
     2     2     3 2   
     3     2     4 1   
     4     2    12 1   
     5     4     5 ar  
     6     4     7 ar  
     7     5     6 ar  
     8     5    41 1   
     9     6     9 ar  
    10     6    42 1   
    11     7     8 ar  
    12     7    43 1   
    13     8     9 ar  
    14     8    44 1   
    15     9    10 1   
    16    10    11 1   
    17    11    45 1   
    18    11    46 1   
    19    11    47 1   
    20    12    13 1   
    21    12    18 1   
    22    13    14 1   
    23    13    48 1   
    24    13    49 1   
    25    14    15 1   
    26    14    16 1   
    27    14    50 1   
    28    15    51 1   
    29    15    52 1   
    30    15    53 1   
    31    16    17 1   
    32    16    54 1   
    33    16    55 1   
    34    17    56 1   
    35    17    57 1   
    36    17    58 1   
    37    18    19 1   
    38    18    59 1   
    39    18    60 1   
    40    19    20 1   
    41    19    21 1   
    42    19    61 1   
    43    20    62 1   
    44    21    22 1   
    45    21    29 1   
    46    21    63 1   
    47    22    23 1   
    48    22    64 1   
    49    22    65 1   
    50    23    24 ar  
    51    23    28 ar  
    52    24    25 ar  
    53    24    66 1   
    54    25    26 ar  
    55    25    67 1   
    56    26    27 ar  
    57    26    68 1   
    58    27    28 ar  
    59    27    69 1   
    60    28    70 1   
    61    29    30 1   
    62    29    71 1   
    63    30    31 2   
    64    30    32 1   
    65    32    33 1   
    66    33    34 1   
    67    33    72 1   
    68    33    73 1   
    69    34    35 1   
    70    34    74 1   
    71    34    75 1   
    72    35    36 1   
    73    35    37 1   
    74    36    40 1   
    75    36    76 1   
    76    36    77 1   
    77    37    38 2   
    78    37    39 1   
    79    39    40 1   
    80    39    78 1   
    81    40    79 1   
    82    40    80 1   
@<TRIPOS>SUBSTRUCTURE
     1 M86         1 TEMP              0 ****  ****    0 ROOT
