@<TRIPOS>MOLECULE
M87
   40    42     1     0     0
SMALL
No Charge or Current Charge


@<TRIPOS>ATOM
      1 F23          6.8910    -2.3590    -0.0290 f          1 M87      -0.181000
      2 C23          6.3210    -1.1420     0.1100 ca         1 M87       0.171000
      3 C24          7.1000     0.0140    -0.0480 ca         1 M87      -0.153000
      4 C25          6.5070     1.2800     0.0960 ca         1 M87      -0.083000
      5 C26          5.1370     1.3820     0.3970 ca         1 M87      -0.123000
      6 C22          4.9540    -1.0430     0.4110 ca         1 M87      -0.152000
      7 C21          4.3520     0.2220     0.5570 ca         1 M87      -0.052300
      8 C14          2.8680     0.3370     0.8780 c3         1 M87      -0.037100
      9 C13          2.0090     0.4380    -0.3980 c3         1 M87       0.159800
     10 N12          0.5790     0.5540    -0.0530 n7         1 M87      -0.863400
     11 C11         -0.3330     0.6840    -1.2040 c3         1 M87       0.203100
     12 C08         -1.7790     0.7680    -0.7330 ca         1 M87      -0.068300
     13 C07         -2.3180     1.9990    -0.3160 ca         1 M87      -0.105000
     14 C06         -3.6510     2.0780     0.1160 ca         1 M87      -0.081000
     15 C09         -2.5900    -0.3850    -0.7120 ca         1 M87      -0.101000
     16 C10         -3.9290    -0.3290    -0.2830 ca         1 M87       0.323000
     17 N01         -4.6800    -1.4570    -0.2760 nb         1 M87      -0.758000
     18 C05         -4.4560     0.9230     0.1340 ca         1 M87      -0.125000
     19 C04         -5.7920     1.0000     0.5660 ca         1 M87      -0.030000
     20 C03         -6.5500    -0.1790     0.5650 ca         1 M87      -0.209000
     21 C02         -5.9370    -1.3560     0.1330 ca         1 M87       0.611900
     22 N02         -6.5480    -2.5410     0.0940 nv         1 M87      -1.063900
     23 H24          8.1590    -0.0720    -0.2810 ha         1 M87       0.132000
     24 H22          4.3650    -1.9490     0.5270 ha         1 M87       0.129000
     25 H25          7.1060     2.1800    -0.0270 ha         1 M87       0.117000
     26 H26          4.6830     2.3660     0.5040 ha         1 M87       0.119000
     27 H141         2.5420    -0.5300     1.4650 hc         1 M87       0.056700
     28 H142         2.6860     1.2190     1.5040 hc         1 M87       0.056700
     29 H131         2.3340     1.3150    -0.9750 h1         1 M87       0.033700
     30 H132         2.1830    -0.4520    -1.0180 h1         1 M87       0.033700
     31 H12          0.3040    -0.2870     0.4690 hn         1 M87       0.411000
     32 H111        -0.0930     1.5860    -1.7830 h1         1 M87       0.039200
     33 H112        -0.2240    -0.1750    -1.8800 h1         1 M87       0.039200
     34 H07         -1.7000     2.8940    -0.3240 ha         1 M87       0.127000
     35 H09         -2.1780    -1.3380    -1.0310 ha         1 M87       0.125000
     36 H06         -4.0560     3.0360     0.4370 ha         1 M87       0.112000
     37 H04         -6.2280     1.9420     0.8930 ha         1 M87       0.116000
     38 H03         -7.5860    -0.1770     0.8890 ha         1 M87       0.120000
     39 H021        -5.9220    -3.3310    -0.0070 hn         1 M87       0.474500
     40 H022        -7.3510    -2.6750     0.6990 hn         1 M87       0.474500
@<TRIPOS>BOND
     1     1     2 1   
     2     2     3 ar  
     3     2     6 ar  
     4     3     4 ar  
     5     3    23 1   
     6     4     5 ar  
     7     4    25 1   
     8     5     7 ar  
     9     5    26 1   
    10     6     7 ar  
    11     6    24 1   
    12     7     8 1   
    13     8     9 1   
    14     8    27 1   
    15     8    28 1   
    16     9    10 1   
    17     9    29 1   
    18     9    30 1   
    19    10    11 1   
    20    10    31 1   
    21    11    12 1   
    22    11    32 1   
    23    11    33 1   
    24    12    13 ar  
    25    12    15 ar  
    26    13    14 ar  
    27    13    34 1   
    28    14    18 ar  
    29    14    36 1   
    30    15    16 ar  
    31    15    35 1   
    32    16    17 ar  
    33    16    18 ar  
    34    17    21 ar  
    35    18    19 ar  
    36    19    20 ar  
    37    19    37 1   
    38    20    21 ar  
    39    20    38 1   
    40    21    22 1   
    41    22    39 1   
    42    22    40 1   
@<TRIPOS>SUBSTRUCTURE
     1 M87         1 TEMP              0 ****  ****    0 ROOT
