@<TRIPOS>MOLECULE
M87
   40    42     1     0     0
SMALL
bcc


@<TRIPOS>ATOM
      1 F23          6.8910    -2.1420     0.1170 f          1 M87      -0.145900
      2 C23          6.3170    -0.9260     0.1240 ca         1 M87       0.135900
      3 C24          7.0620     0.1650    -0.2790 ca         1 M87      -0.171000
      4 C25          6.4500     1.4110    -0.2610 ca         1 M87      -0.101000
      5 C26          5.1310     1.5460     0.1490 ca         1 M87      -0.141000
      6 C22          5.0040    -0.8180     0.5360 ca         1 M87      -0.170000
      7 C21          4.3940     0.4340     0.5520 ca         1 M87      -0.052300
      8 C14          2.9510     0.5670     0.9450 c3         1 M87      -0.037100
      9 C13          2.0290     0.3220    -0.2480 c3         1 M87       0.159800
     10 N12          0.6390     0.4560     0.1380 n7         1 M87      -0.808200
     11 C11         -0.2720     0.2400    -0.9700 c3         1 M87       0.203100
     12 C08         -1.7000     0.4320    -0.5390 ca         1 M87      -0.068300
     13 C07         -2.0850     1.6490     0.0670 ca         1 M87      -0.123000
     14 C06         -3.3830     1.8490     0.4550 ca         1 M87      -0.099000
     15 C09         -2.6340    -0.5580    -0.7250 ca         1 M87      -0.184300
     16 C10         -3.9800    -0.3820    -0.3330 ca         1 M87       0.453600
     17 N01         -4.8560    -1.3940    -0.5360 nb         1 M87      -0.758000
     18 C05         -4.3520     0.8440     0.2640 ca         1 M87      -0.190300
     19 C04         -5.7100     0.9870     0.6460 ca         1 M87      -0.048000
     20 C03         -6.5850    -0.0280     0.4330 ca         1 M87      -0.292300
     21 C02         -6.1070    -1.2310    -0.1730 ca         1 M87       0.677200
     22 N02         -6.9850    -2.2370    -0.4250 nv         1 M87      -0.953500
     23 H24          8.0910     0.0460    -0.5930 ha         1 M87       0.150000
     24 H22          4.4600    -1.7030     0.8460 ha         1 M87       0.147000
     25 H25          7.0110     2.2840    -0.5670 ha         1 M87       0.135000
     26 H26          4.6690     2.5260     0.1620 ha         1 M87       0.137000
     27 H141         2.7120    -0.1470     1.7380 hc         1 M87       0.056700
     28 H142         2.7590     1.5660     1.3430 hc         1 M87       0.056700
     29 H131         2.2440     1.0610    -1.0260 h1         1 M87       0.033700
     30 H132         2.2590    -0.6630    -0.6850 h1         1 M87       0.033700
     31 H12          0.4320    -0.2190     0.8660 hn         1 M87       0.355800
     32 H111        -0.0310     0.9730    -1.7470 h1         1 M87       0.039200
     33 H112        -0.1600    -0.7500    -1.4360 h1         1 M87       0.039200
     34 H07         -1.3430     2.4210     0.2220 ha         1 M87       0.145000
     35 H09         -2.3500    -1.5000    -1.1790 ha         1 M87       0.143000
     36 H06         -3.6800     2.7850     0.9130 ha         1 M87       0.130000
     37 H04         -6.0430     1.9100     1.1060 ha         1 M87       0.134000
     38 H03         -7.6270     0.0610     0.7130 ha         1 M87       0.138000
     39 H021        -6.5960    -3.1400    -0.6370 hn         1 M87       0.419300
     40 H022        -7.8490    -2.2600     0.0900 hn         1 M87       0.419300
@<TRIPOS>BOND
     1     1     2 1   
     2     2     3 ar  
     3     2     6 ar  
     4     3     4 ar  
     5     3    23 1   
     6     4     5 ar  
     7     4    25 1   
     8     5     7 ar  
     9     5    26 1   
    10     6     7 ar  
    11     6    24 1   
    12     7     8 1   
    13     8     9 1   
    14     8    27 1   
    15     8    28 1   
    16     9    10 1   
    17     9    29 1   
    18     9    30 1   
    19    10    11 1   
    20    10    31 1   
    21    11    12 1   
    22    11    32 1   
    23    11    33 1   
    24    12    13 ar  
    25    12    15 ar  
    26    13    14 ar  
    27    13    34 1   
    28    14    18 ar  
    29    14    36 1   
    30    15    16 ar  
    31    15    35 1   
    32    16    17 ar  
    33    16    18 ar  
    34    17    21 ar  
    35    18    19 ar  
    36    19    20 ar  
    37    19    37 1   
    38    20    21 ar  
    39    20    38 1   
    40    21    22 1   
    41    22    39 1   
    42    22    40 1   
@<TRIPOS>SUBSTRUCTURE
     1 M87         1 TEMP              0 ****  ****    0 ROOT
