@<TRIPOS>MOLECULE
M89
   29    31     1     0     0
SMALL
No Charge or Current Charge


@<TRIPOS>ATOM
      1 N1         -14.3780    12.4930    -1.3020 ns         1 M89      -0.391100
      2 N3         -11.4520    15.2520     7.6850 n1         1 M89      -0.439000
      3 C4         -14.7450    13.7610    -0.8920 c          1 M89       0.482000
      4 C5         -11.4910    11.3520     0.8860 c6         1 M89       0.073500
      5 C6         -11.9370    10.6190     2.1650 c6         1 M89       0.169600
      6 C7         -11.4690    12.5390     3.6360 ca         1 M89       0.129100
      7 C8         -10.3700    12.9980     2.8640 ca         1 M89      -0.157000
      8 C10         -9.8270    14.6100     4.6130 ca         1 M89      -0.093000
      9 C13        -11.2130    14.7720     6.6470 cg         1 M89       0.320000
     10 C1         -13.3510    11.7320    -0.7420 cc         1 M89      -0.103400
     11 C2         -12.6000    12.2220     0.3130 cd         1 M89      -0.042600
     12 N2         -12.8950    13.4920     0.7920 ns         1 M89      -0.394100
     13 C3         -13.8830    14.3380     0.3230 c          1 M89       0.486000
     14 O1         -12.3210    11.5360     3.2160 os         1 M89      -0.345100
     15 S1          -9.9800    12.3330     1.2470 ss         1 M89      -0.133000
     16 C9         -10.9260    14.1710     5.3730 ca         1 M89       0.017000
     17 C11         -9.5530    14.0270     3.3650 ca         1 M89      -0.063000
     18 C12        -11.7440    13.1380     4.8770 ca         1 M89      -0.095000
     19 O2         -15.6600    14.3740    -1.4310 o          1 M89      -0.487000
     20 O3         -14.0660    15.4460     0.8190 o          1 M89      -0.491000
     21 HN1        -14.9200    12.1180    -2.0750 hn         1 M89       0.334500
     22 H5         -11.1950    10.6010     0.1400 h1         1 M89       0.103700
     23 H61        -12.7910     9.9650     1.9410 h1         1 M89       0.077700
     24 H62        -11.1170     9.9860     2.5320 h1         1 M89       0.077700
     25 H10         -9.1860    15.4080     4.9860 ha         1 M89       0.134000
     26 H1         -13.2250    10.7590    -1.2130 h4         1 M89       0.227000
     27 HN2        -12.3550    13.8660     1.5650 hn         1 M89       0.330500
     28 H11         -8.7060    14.3820     2.7810 ha         1 M89       0.132000
     29 H12        -12.5960    12.7910     5.4560 ha         1 M89       0.141000
@<TRIPOS>BOND
     1     1     3 1   
     2     1    10 1   
     3     1    21 1   
     4     2     9 3   
     5     3    13 1   
     6     3    19 2   
     7     4     5 1   
     8     4    11 1   
     9     4    15 1   
    10     4    22 1   
    11     5    14 1   
    12     5    23 1   
    13     5    24 1   
    14     6     7 ar  
    15     6    14 1   
    16     6    18 ar  
    17     7    15 1   
    18     7    17 ar  
    19     8    16 ar  
    20     8    17 ar  
    21     8    25 1   
    22     9    16 1   
    23    10    11 2   
    24    10    26 1   
    25    11    12 1   
    26    12    13 1   
    27    12    27 1   
    28    13    20 2   
    29    16    18 ar  
    30    17    28 1   
    31    18    29 1   
@<TRIPOS>SUBSTRUCTURE
     1 M89         1 TEMP              0 ****  ****    0 ROOT
