@<TRIPOS>MOLECULE
M89
   29    31     1     0     0
SMALL
abcg2


@<TRIPOS>ATOM
      1 N1         -14.7080    13.1220     0.2380 ns         1 M89      -0.391100
      2 N3         -12.0980    14.0190     8.0480 n1         1 M89      -0.439000
      3 C4         -14.6240    13.8960    -0.8680 c          1 M89       0.482000
      4 C5         -11.2170    11.7800     0.7470 c6         1 M89       0.073500
      5 C6         -11.4400    10.7160     1.8060 c6         1 M89       0.169600
      6 C7         -11.4470    12.2970     3.6030 ca         1 M89       0.129100
      7 C8         -10.5440    13.1750     2.9910 ca         1 M89      -0.157000
      8 C10        -10.4430    14.4950     5.0150 ca         1 M89      -0.093000
      9 C13        -11.7690    13.8410     6.9580 cg         1 M89       0.320000
     10 C1         -13.6590    12.4280     0.8070 cc         1 M89      -0.103400
     11 C2         -12.4400    12.4880     0.2610 cd         1 M89      -0.042600
     12 N2         -12.2720    13.2690    -0.8750 ns         1 M89      -0.394100
     13 C3         -13.2440    13.9810    -1.4940 c          1 M89       0.486000
     14 O1         -11.9930    11.2220     3.0050 os         1 M89      -0.345100
     15 S1          -9.9530    12.9510     1.3560 ss         1 M89      -0.133000
     16 C9         -11.3530    13.6220     5.6110 ca         1 M89       0.017000
     17 C11        -10.0570    14.2670     3.7110 ca         1 M89      -0.063000
     18 C12        -11.8540    12.5330     4.9100 ca         1 M89      -0.095000
     19 O2         -15.5620    14.4910    -1.3550 o          1 M89      -0.487000
     20 O3         -13.0580    14.6470    -2.4910 o          1 M89      -0.491000
     21 HN1        -15.6170    13.0480     0.6760 hn         1 M89       0.334500
     22 H5         -10.7330    11.2840    -0.1000 h1         1 M89       0.103700
     23 H61        -12.1500     9.9700     1.4490 h1         1 M89       0.077700
     24 H62        -10.4890    10.2160     2.0040 h1         1 M89       0.077700
     25 H10        -10.0520    15.3430     5.5600 ha         1 M89       0.134000
     26 H1         -13.9000    11.8610     1.6890 h4         1 M89       0.227000
     27 HN2        -11.3550    13.3160    -1.3040 hn         1 M89       0.330500
     28 H11         -9.3650    14.9490     3.2340 ha         1 M89       0.132000
     29 H12        -12.5570    11.8530     5.3740 ha         1 M89       0.141000
@<TRIPOS>BOND
     1     1     3 1   
     2     1    10 1   
     3     1    21 1   
     4     2     9 3   
     5     3    13 1   
     6     3    19 2   
     7     4     5 1   
     8     4    11 1   
     9     4    15 1   
    10     4    22 1   
    11     5    14 1   
    12     5    23 1   
    13     5    24 1   
    14     6     7 ar  
    15     6    14 1   
    16     6    18 ar  
    17     7    15 1   
    18     7    17 ar  
    19     8    16 ar  
    20     8    17 ar  
    21     8    25 1   
    22     9    16 1   
    23    10    11 2   
    24    10    26 1   
    25    11    12 1   
    26    12    13 1   
    27    12    27 1   
    28    13    20 2   
    29    16    18 ar  
    30    17    28 1   
    31    18    29 1   
@<TRIPOS>SUBSTRUCTURE
     1 M89         1 TEMP              0 ****  ****    0 ROOT
