@<TRIPOS>MOLECULE
M8A
   52    54     1     0     0
SMALL
bcc


@<TRIPOS>ATOM
      1 OAA         -9.6290     1.5220    -1.3640 o          1 M8A      -0.512100
      2 CAD         -8.9730     1.2790    -0.3820 c          1 M8A       0.572900
      3 CAN         -7.6040     0.6740    -0.3870 c3         1 M8A      -0.203400
      4 CAP         -6.6280     1.4850     0.4760 c3         1 M8A      -0.015100
      5 CAX         -5.2700     0.8440     0.5190 ca         1 M8A      -0.112300
      6 CAK         -4.2560     1.2500    -0.3400 ca         1 M8A      -0.096000
      7 CAM         -3.0080     0.6420    -0.3520 ca         1 M8A      -0.166000
      8 CAJ         -4.9930    -0.2070     1.3900 ca         1 M8A      -0.096000
      9 CAL         -3.7570    -0.8280     1.3930 ca         1 M8A      -0.166000
     10 CAZ         -2.7480    -0.4150     0.5190 ca         1 M8A       0.079600
     11 NAT         -1.5360    -1.1130     0.5790 ns         1 M8A      -0.465100
     12 C           -0.4050    -0.9280    -0.1390 c          1 M8A       0.673100
     13 O           -0.2320    -0.0420    -0.9530 o          1 M8A      -0.564100
     14 CA           0.6410    -2.0110     0.1000 c5         1 M8A       0.044700
     15 CB           0.5150    -3.1130    -0.9670 c5         1 M8A      -0.088400
     16 CG           1.9580    -3.5420    -1.2120 c5         1 M8A      -0.097400
     17 CD           2.7330    -2.2350    -1.1100 c5         1 M8A       0.121000
     18 N            1.9800    -1.5050    -0.0980 n          1 M8A      -0.466800
     19 CAW          2.4130    -0.4560     0.6190 c          1 M8A       0.768100
     20 OAC          1.7690     0.0760     1.5040 o          1 M8A      -0.596000
     21 OAU          3.6340    -0.0680     0.2440 os         1 M8A      -0.426900
     22 CAS          4.2250     1.0200     0.9650 c3         1 M8A       0.207700
     23 CAY          5.5490     1.2940     0.3200 ca         1 M8A      -0.101300
     24 CAH          5.6670     2.2700    -0.6650 ca         1 M8A      -0.102500
     25 CAF          6.8880     2.5030    -1.2850 ca         1 M8A      -0.134500
     26 CAE          8.0020     1.7580    -0.9260 ca         1 M8A      -0.116000
     27 CAG          7.8930     0.7810     0.0570 ca         1 M8A      -0.134500
     28 CAI          6.6730     0.5520     0.6750 ca         1 M8A      -0.102500
     29 HAN1        -7.7010    -0.3320     0.0370 hc         1 M8A       0.070200
     30 HAN2        -7.2380     0.5710    -1.4090 hc         1 M8A       0.070200
     31 HAD         -9.3710     1.4950     0.6270 h4         1 M8A      -0.021800
     32 HAP1        -6.5430     2.4970     0.0760 hc         1 M8A       0.049200
     33 HAP2        -7.0310     1.5790     1.4880 hc         1 M8A       0.049200
     34 HAK         -4.4350     2.0710    -1.0260 ha         1 M8A       0.130500
     35 HAJ         -5.7540    -0.5530     2.0800 ha         1 M8A       0.130500
     36 HAM         -2.2560     0.9990    -1.0360 ha         1 M8A       0.147500
     37 HAL         -3.5730    -1.6440     2.0820 ha         1 M8A       0.147500
     38 HAT         -1.5170    -1.8700     1.2460 hn         1 M8A       0.316500
     39 HA           0.5320    -2.4360     1.1040 h1         1 M8A       0.066700
     40 HB1C        -0.1280    -3.9250    -0.6320 hc         1 M8A       0.062700
     41 HB2C         0.0890    -2.7040    -1.8860 hc         1 M8A       0.062700
     42 HG1C         2.2870    -4.2340    -0.4350 hc         1 M8A       0.057200
     43 HG2C         2.0930    -4.0290    -2.1760 hc         1 M8A       0.057200
     44 HD1C         3.7660    -2.3880    -0.8040 h1         1 M8A       0.060700
     45 HD2C         2.7360    -1.6970    -2.0620 h1         1 M8A       0.060700
     46 HAS1         3.5800     1.8990     0.9180 h1         1 M8A       0.057200
     47 HAS2         4.3510     0.7470     2.0150 h1         1 M8A       0.057200
     48 HAH          4.8010     2.8570    -0.9470 ha         1 M8A       0.133500
     49 HAI          6.5930    -0.2070     1.4450 ha         1 M8A       0.133500
     50 HAF          6.9660     3.2670    -2.0480 ha         1 M8A       0.132000
     51 HAE          8.9550     1.9380    -1.4070 ha         1 M8A       0.131000
     52 HAG          8.7600     0.1990     0.3430 ha         1 M8A       0.132000
@<TRIPOS>BOND
     1     1     2 2   
     2     2     3 1   
     3     2    31 1   
     4     3     4 1   
     5     3    29 1   
     6     3    30 1   
     7     4     5 1   
     8     4    32 1   
     9     4    33 1   
    10     5     6 ar  
    11     5     8 ar  
    12     6     7 ar  
    13     6    34 1   
    14     7    10 ar  
    15     7    36 1   
    16     8     9 ar  
    17     8    35 1   
    18     9    10 ar  
    19     9    37 1   
    20    10    11 1   
    21    11    12 1   
    22    11    38 1   
    23    12    13 2   
    24    12    14 1   
    25    14    15 1   
    26    14    18 1   
    27    14    39 1   
    28    15    16 1   
    29    15    40 1   
    30    15    41 1   
    31    16    17 1   
    32    16    42 1   
    33    16    43 1   
    34    17    18 1   
    35    17    44 1   
    36    17    45 1   
    37    18    19 1   
    38    19    20 2   
    39    19    21 1   
    40    21    22 1   
    41    22    23 1   
    42    22    46 1   
    43    22    47 1   
    44    23    24 ar  
    45    23    28 ar  
    46    24    25 ar  
    47    24    48 1   
    48    25    26 ar  
    49    25    50 1   
    50    26    27 ar  
    51    26    51 1   
    52    27    28 ar  
    53    27    52 1   
    54    28    49 1   
@<TRIPOS>SUBSTRUCTURE
     1 M8A         1 TEMP              0 ****  ****    0 ROOT
