@<TRIPOS>MOLECULE
M8A
   52    54     1     0     0
SMALL
No Charge or Current Charge


@<TRIPOS>ATOM
      1 OAA         -9.6490     2.3310    -0.7090 o          1 M8A      -0.512100
      2 CAD         -9.3220     1.2260    -0.2890 c          1 M8A       0.572900
      3 CAN         -7.9020     0.6710    -0.4130 c3         1 M8A      -0.203400
      4 CAP         -6.9970     1.1770     0.7310 c3         1 M8A      -0.015100
      5 CAX         -5.5860     0.6110     0.6310 ca         1 M8A      -0.112300
      6 CAK         -4.6100     1.2690    -0.1390 ca         1 M8A      -0.078000
      7 CAM         -3.3080     0.7470    -0.2380 ca         1 M8A      -0.148000
      8 CAJ         -5.2470    -0.5780     1.3000 ca         1 M8A      -0.078000
      9 CAL         -3.9460    -1.1000     1.2020 ca         1 M8A      -0.148000
     10 CAZ         -2.9640    -0.4460     0.4350 ca         1 M8A      -0.013000
     11 NAT         -1.6700    -1.0340     0.3820 ns         1 M8A      -0.139000
     12 C           -0.5030    -0.6680    -0.2800 c          1 M8A       0.606100
     13 O           -0.3740     0.3160    -1.0040 o          1 M8A      -0.564100
     14 CA           0.5970    -1.7280     0.0590 c5         1 M8A       0.044700
     15 CB           0.5150    -2.8810    -0.9910 c5         1 M8A      -0.088400
     16 CG           1.9520    -3.4570    -0.9620 c5         1 M8A      -0.097400
     17 CD           2.8110    -2.1680    -0.9810 c5         1 M8A       0.121000
     18 N            2.0060    -1.2750    -0.1210 n          1 M8A      -0.399800
     19 CAW          2.5140    -0.1110     0.4810 c          1 M8A       0.652100
     20 OAC          1.8700     0.5810     1.2570 o          1 M8A      -0.547000
     21 OAU          3.8140     0.1180     0.1310 os         1 M8A      -0.450100
     22 CAS          4.4640     1.2680     0.6950 c3         1 M8A       0.230900
     23 CAY          5.8910     1.3170     0.1650 ca         1 M8A      -0.101300
     24 CAH          6.1860     2.0230    -1.0180 ca         1 M8A      -0.084500
     25 CAF          7.5040     2.0670    -1.5070 ca         1 M8A      -0.116500
     26 CAE          8.5330     1.4040    -0.8180 ca         1 M8A      -0.098000
     27 CAG          8.2440     0.6960     0.3610 ca         1 M8A      -0.116500
     28 CAI          6.9270     0.6510     0.8510 ca         1 M8A      -0.084500
     29 HAN1        -7.9500    -0.4210    -0.3380 hc         1 M8A       0.070200
     30 HAN2        -7.4730     0.9780    -1.3740 hc         1 M8A       0.070200
     31 HAD        -10.0570     0.5610     0.2140 h4         1 M8A      -0.021800
     32 HAP1        -6.9630     2.2740     0.7090 hc         1 M8A       0.049200
     33 HAP2        -7.4450     0.9060     1.6960 hc         1 M8A       0.049200
     34 HAK         -4.8600     2.1880    -0.6650 ha         1 M8A       0.112500
     35 HAJ         -5.9920    -1.1010     1.8970 ha         1 M8A       0.112500
     36 HAM         -2.5860     1.2870    -0.8410 ha         1 M8A       0.129500
     37 HAL         -3.7030    -2.0210     1.7280 ha         1 M8A       0.129500
     38 HAT         -1.5880    -1.8800     0.9300 hn         1 M8A       0.150000
     39 HA           0.4500    -2.1000     1.0820 h1         1 M8A       0.066700
     40 HB1C        -0.2460    -3.6290    -0.7350 hc         1 M8A       0.062700
     41 HB2C         0.2740    -2.5010    -1.9910 hc         1 M8A       0.062700
     42 HG1C         2.1290    -4.0340    -0.0460 hc         1 M8A       0.057200
     43 HG2C         2.1660    -4.1150    -1.8120 hc         1 M8A       0.057200
     44 HD1C         3.8190    -2.3450    -0.5830 h1         1 M8A       0.060700
     45 HD2C         2.9010    -1.7530    -1.9940 h1         1 M8A       0.060700
     46 HAS1         3.9360     2.1890     0.4160 h1         1 M8A       0.057200
     47 HAS2         4.4810     1.2070     1.7910 h1         1 M8A       0.057200
     48 HAH          5.3940     2.5370    -1.5600 ha         1 M8A       0.115500
     49 HAI          6.7100     0.0980     1.7620 ha         1 M8A       0.115500
     50 HAF          7.7260     2.6140    -2.4210 ha         1 M8A       0.114000
     51 HAE          9.5530     1.4380    -1.1960 ha         1 M8A       0.113000
     52 HAG          9.0400     0.1810     0.8950 ha         1 M8A       0.114000
@<TRIPOS>BOND
     1     1     2 2   
     2     2     3 1   
     3     2    31 1   
     4     3     4 1   
     5     3    29 1   
     6     3    30 1   
     7     4     5 1   
     8     4    32 1   
     9     4    33 1   
    10     5     6 ar  
    11     5     8 ar  
    12     6     7 ar  
    13     6    34 1   
    14     7    10 ar  
    15     7    36 1   
    16     8     9 ar  
    17     8    35 1   
    18     9    10 ar  
    19     9    37 1   
    20    10    11 1   
    21    11    12 1   
    22    11    38 1   
    23    12    13 2   
    24    12    14 1   
    25    14    15 1   
    26    14    18 1   
    27    14    39 1   
    28    15    16 1   
    29    15    40 1   
    30    15    41 1   
    31    16    17 1   
    32    16    42 1   
    33    16    43 1   
    34    17    18 1   
    35    17    44 1   
    36    17    45 1   
    37    18    19 1   
    38    19    20 2   
    39    19    21 1   
    40    21    22 1   
    41    22    23 1   
    42    22    46 1   
    43    22    47 1   
    44    23    24 ar  
    45    23    28 ar  
    46    24    25 ar  
    47    24    48 1   
    48    25    26 ar  
    49    25    50 1   
    50    26    27 ar  
    51    26    51 1   
    52    27    28 ar  
    53    27    52 1   
    54    28    49 1   
@<TRIPOS>SUBSTRUCTURE
     1 M8A         1 TEMP              0 ****  ****    0 ROOT
