@<TRIPOS>MOLECULE
M8B
  101   103     1     0     0
SMALL
No Charge or Current Charge


@<TRIPOS>ATOM
      1 C19          7.3510     1.9070    -3.2450 c3         1 M8B       0.171900
      2 O5           6.0150     1.4670    -2.9460 os         1 M8B      -0.448100
      3 C18          5.3160     2.1620    -2.0070 c          1 M8B       0.638100
      4 O4           5.7220     3.1300    -1.3840 o          1 M8B      -0.555000
      5 N4           4.0910     1.5810    -1.8520 ns         1 M8B      -0.487900
      6 C13          3.0580     2.0110    -0.8810 c3         1 M8B       0.051700
      7 C14          1.9010     2.8260    -1.5710 c3         1 M8B      -0.043000
      8 C16          1.1600     1.9660    -2.6340 c3         1 M8B      -0.090100
      9 C17          0.8690     3.3020    -0.5140 c3         1 M8B      -0.090100
     10 C15          2.4850     4.0870    -2.2690 c3         1 M8B      -0.090100
     11 C12          2.5710     0.7560    -0.0940 c          1 M8B       0.611100
     12 O3           2.4920    -0.3560    -0.6100 o          1 M8B      -0.571100
     13 N3           2.3020     0.9780     1.2580 ns         1 M8B      -0.389300
     14 N2           2.1460    -0.0930     2.1990 n3         1 M8B      -0.451600
     15 C10          3.4010    -0.3450     2.9520 c3         1 M8B       0.189100
     16 C11          4.6170    -0.5280     2.0440 ca         1 M8B      -0.083300
     17 C20          5.5010     0.5470     1.8130 ca         1 M8B      -0.085000
     18 C21          6.5840     0.3980     0.9300 ca         1 M8B      -0.088500
     19 C22          6.7920    -0.8280     0.2780 ca         1 M8B      -0.010900
     20 Br1          8.2570    -1.0270    -0.9340 br         1 M8B      -0.106100
     21 C23          5.9220    -1.9070     0.5090 ca         1 M8B      -0.088500
     22 C24          4.8360    -1.7560     1.3900 ca         1 M8B      -0.085000
     23 C9           0.9460     0.0610     3.0560 c3         1 M8B       0.156800
     24 C8          -0.3920     0.2110     2.2920 c3         1 M8B      -0.066400
     25 C7          -0.7040    -0.9610     1.3220 c3         1 M8B      -0.062400
     26 C1          -2.0310    -0.8140     0.5250 c3         1 M8B       0.115000
     27 C25         -2.2660    -2.0350    -0.4160 c3         1 M8B      -0.058100
     28 O1          -1.9030     0.3570    -0.3240 oh         1 M8B      -0.661000
     29 C2          -3.2570    -0.6940     1.5060 c          1 M8B       0.577100
     30 O2          -3.5130    -1.5210     2.3730 o          1 M8B      -0.617100
     31 N1          -4.0530     0.4100     1.2920 ns         1 M8B      -0.489900
     32 C3          -5.4450     0.5640     1.7630 c3         1 M8B       0.045700
     33 C4          -5.5620     1.5680     2.9690 c3         1 M8B      -0.043000
     34 C6          -5.0420     2.9820     2.5830 c3         1 M8B      -0.086433
     35 C35         -7.0420     1.6870     3.4240 c3         1 M8B      -0.086433
     36 C5          -4.7290     1.0460     4.1730 c3         1 M8B      -0.086433
     37 C34         -6.3150     0.9460     0.5240 c          1 M8B       0.580100
     38 O6          -5.9130     1.6870    -0.3670 o          1 M8B      -0.615100
     39 N5          -7.5610     0.3570     0.4720 ns         1 M8B      -0.489900
     40 C37         -8.5000     0.4930    -0.6370 c3         1 M8B       0.135200
     41 C36         -9.1540    -0.8460    -0.8960 c2         1 M8B      -0.248200
     42 C33         -8.7790    -1.7610    -1.8090 c2         1 M8B      -0.188200
     43 C32         -7.6370    -1.6380    -2.8060 c3         1 M8B      -0.004900
     44 C29         -6.2410    -1.7930    -2.2030 ca         1 M8B      -0.072300
     45 C28         -5.1390    -1.1800    -2.8330 ca         1 M8B      -0.108000
     46 C27         -3.8480    -1.2870    -2.2850 ca         1 M8B      -0.104500
     47 C26         -3.6420    -2.0000    -1.0880 ca         1 M8B      -0.097300
     48 C31         -4.7360    -2.6470    -0.4820 ca         1 M8B      -0.104500
     49 C30         -6.0240    -2.5460    -1.0330 ca         1 M8B      -0.108000
     50 H191         7.8050     1.2590    -4.0060 h1         1 M8B       0.047367
     51 H192         7.3480     2.9350    -3.6300 h1         1 M8B       0.047367
     52 H193         7.9840     1.8730    -2.3480 h1         1 M8B       0.047367
     53 H4           3.9210     0.7550    -2.4110 hn         1 M8B       0.343500
     54 H13          3.5400     2.6650    -0.1420 h1         1 M8B       0.079700
     55 H161         0.6910     1.0850    -2.1780 hc         1 M8B       0.040811
     56 H162         0.3670     2.5470    -3.1190 hc         1 M8B       0.040811
     57 H163         1.8440     1.6200    -3.4180 hc         1 M8B       0.040811
     58 H171         1.3580     3.8640     0.2920 hc         1 M8B       0.040811
     59 H172         0.1150     3.9560    -0.9680 hc         1 M8B       0.040811
     60 H173         0.3360     2.4550    -0.0690 hc         1 M8B       0.040811
     61 H151         3.1610     3.8160    -3.0890 hc         1 M8B       0.040811
     62 H152         1.6860     4.7060    -2.6950 hc         1 M8B       0.040811
     63 H153         3.0460     4.7040    -1.5570 hc         1 M8B       0.040811
     64 H3           2.4120     1.9280     1.6010 hn         1 M8B       0.302500
     65 H101         3.5960     0.4890     3.6390 h1         1 M8B       0.046700
     66 H102         3.2870    -1.2460     3.5700 h1         1 M8B       0.046700
     67 H91C         0.8610    -0.8140     3.7140 h1         1 M8B       0.037700
     68 H92C         1.0690     0.9380     3.7060 h1         1 M8B       0.037700
     69 H20          5.3380     1.5040     2.3040 ha         1 M8B       0.121500
     70 H24          4.1530    -2.5870     1.5510 ha         1 M8B       0.121500
     71 H21          7.2560     1.2340     0.7470 ha         1 M8B       0.130500
     72 H23          6.0820    -2.8540     0.0010 ha         1 M8B       0.130500
     73 H81C        -1.1960     0.2950     3.0330 hc         1 M8B       0.052200
     74 H82C        -0.3850     1.1580     1.7410 hc         1 M8B       0.052200
     75 H71C         0.1210    -1.0670     0.6090 hc         1 M8B       0.072200
     76 H72C        -0.7320    -1.8940     1.8990 hc         1 M8B       0.072200
     77 H1          -2.4400     0.1860    -1.1270 ho         1 M8B       0.455000
     78 H251        -1.4710    -2.0780    -1.1710 hc         1 M8B       0.072200
     79 H252        -2.1680    -2.9580     0.1690 hc         1 M8B       0.072200
     80 HA          -3.7260     1.0410     0.5680 hn         1 M8B       0.340500
     81 HB          -5.8010    -0.4190     2.0990 h1         1 M8B       0.076700
     82 H61C        -5.6280     3.4140     1.7640 hc         1 M8B       0.038811
     83 H62C        -5.1140     3.6680     3.4370 hc         1 M8B       0.038811
     84 H63C        -3.9910     2.9510     2.2710 hc         1 M8B       0.038811
     85 H351        -7.4580     0.7030     3.6710 hc         1 M8B       0.038811
     86 H352        -7.1270     2.3200     4.3170 hc         1 M8B       0.038811
     87 H353        -7.6680     2.1380     2.6450 hc         1 M8B       0.038811
     88 H51C        -3.6590     1.0110     3.9350 hc         1 M8B       0.038811
     89 H52C        -4.8500     1.6990     5.0470 hc         1 M8B       0.038811
     90 H53C        -5.0460     0.0370     4.4610 hc         1 M8B       0.038811
     91 H5          -7.8110    -0.2610     1.2330 hn         1 M8B       0.319500
     92 H371        -9.2590     1.2400    -0.3690 h1         1 M8B       0.057700
     93 H372        -7.9780     0.8460    -1.5360 h1         1 M8B       0.057700
     94 H36        -10.0060    -1.0490    -0.2450 ha         1 M8B       0.176000
     95 H33         -9.3330    -2.6990    -1.8910 ha         1 M8B       0.174000
     96 H321        -7.7680    -2.3840    -3.6000 hc         1 M8B       0.057700
     97 H322        -7.7090    -0.6670    -3.3120 hc         1 M8B       0.057700
     98 H28         -5.2840    -0.6110    -3.7490 ha         1 M8B       0.113500
     99 H30         -6.8520    -3.0450    -0.5370 ha         1 M8B       0.113500
    100 H27         -3.0150    -0.8040    -2.7920 ha         1 M8B       0.121500
    101 H31         -4.5960    -3.2140     0.4360 ha         1 M8B       0.121500
@<TRIPOS>BOND
     1     1     2 1   
     2     1    50 1   
     3     1    51 1   
     4     1    52 1   
     5     2     3 1   
     6     3     4 2   
     7     3     5 1   
     8     5     6 1   
     9     5    53 1   
    10     6     7 1   
    11     6    11 1   
    12     6    54 1   
    13     7     8 1   
    14     7     9 1   
    15     7    10 1   
    16     8    55 1   
    17     8    56 1   
    18     8    57 1   
    19     9    58 1   
    20     9    59 1   
    21     9    60 1   
    22    10    61 1   
    23    10    62 1   
    24    10    63 1   
    25    11    12 2   
    26    11    13 1   
    27    13    14 1   
    28    13    64 1   
    29    14    15 1   
    30    14    23 1   
    31    15    16 1   
    32    15    65 1   
    33    15    66 1   
    34    16    17 ar  
    35    16    22 ar  
    36    17    18 ar  
    37    17    69 1   
    38    18    19 ar  
    39    18    71 1   
    40    19    20 1   
    41    19    21 ar  
    42    21    22 ar  
    43    21    72 1   
    44    22    70 1   
    45    23    24 1   
    46    23    67 1   
    47    23    68 1   
    48    24    25 1   
    49    24    73 1   
    50    24    74 1   
    51    25    26 1   
    52    25    75 1   
    53    25    76 1   
    54    26    27 1   
    55    26    28 1   
    56    26    29 1   
    57    27    47 1   
    58    27    78 1   
    59    27    79 1   
    60    28    77 1   
    61    29    30 2   
    62    29    31 1   
    63    31    32 1   
    64    31    80 1   
    65    32    33 1   
    66    32    37 1   
    67    32    81 1   
    68    33    34 1   
    69    33    35 1   
    70    33    36 1   
    71    34    82 1   
    72    34    83 1   
    73    34    84 1   
    74    35    85 1   
    75    35    86 1   
    76    35    87 1   
    77    36    88 1   
    78    36    89 1   
    79    36    90 1   
    80    37    38 2   
    81    37    39 1   
    82    39    40 1   
    83    39    91 1   
    84    40    41 1   
    85    40    92 1   
    86    40    93 1   
    87    41    42 2   
    88    41    94 1   
    89    42    43 1   
    90    42    95 1   
    91    43    44 1   
    92    43    96 1   
    93    43    97 1   
    94    44    45 ar  
    95    44    49 ar  
    96    45    46 ar  
    97    45    98 1   
    98    46    47 ar  
    99    46   100 1   
   100    47    48 ar  
   101    48    49 ar  
   102    48   101 1   
   103    49    99 1   
@<TRIPOS>SUBSTRUCTURE
     1 M8B         1 TEMP              0 ****  ****    0 ROOT
