@<TRIPOS>MOLECULE
M8B
  101   103     1     0     0
SMALL
abcg2


@<TRIPOS>ATOM
      1 C19          7.1490     2.4660    -2.3880 c3         1 M8B       0.171900
      2 O5           5.8260     1.9460    -2.3940 os         1 M8B      -0.448100
      3 C18          4.9740     2.4500    -1.4970 c          1 M8B       0.638100
      4 O4           5.2740     3.3010    -0.6850 o          1 M8B      -0.555000
      5 N4           3.7530     1.8980    -1.6450 ns         1 M8B      -0.487900
      6 C13          2.6530     2.1620    -0.7490 c3         1 M8B       0.051700
      7 C14          1.4650     2.8730    -1.4440 c3         1 M8B      -0.043000
      8 C16          0.9270     2.0850    -2.6390 c3         1 M8B      -0.090100
      9 C17          0.3400     3.0730    -0.4280 c3         1 M8B      -0.090100
     10 C15          1.9540     4.2410    -1.9240 c3         1 M8B      -0.090100
     11 C12          2.2810     0.8320    -0.0910 c          1 M8B       0.611100
     12 O3           2.0980    -0.1770    -0.7430 o          1 M8B      -0.571100
     13 N3           2.2150     0.8950     1.2560 ns         1 M8B      -0.389300
     14 N2           2.0710    -0.2360     2.0300 n3         1 M8B      -0.451600
     15 C10          3.3270    -0.5550     2.7010 c3         1 M8B       0.189100
     16 C11          4.4380    -0.7180     1.7030 ca         1 M8B      -0.083300
     17 C20          5.4420     0.2340     1.5900 ca         1 M8B      -0.085000
     18 C21          6.4520     0.1080     0.6450 ca         1 M8B      -0.088500
     19 C22          6.4430    -0.9890    -0.2000 ca         1 M8B      -0.010900
     20 BR1          7.8110    -1.1850    -1.4890 br         1 M8B      -0.106100
     21 C23          5.4480    -1.9540    -0.1130 ca         1 M8B      -0.088500
     22 C24          4.4500    -1.8060     0.8360 ca         1 M8B      -0.085000
     23 C9           0.9570    -0.1140     2.9590 c3         1 M8B       0.156800
     24 C8          -0.3830     0.0240     2.2570 c3         1 M8B      -0.066400
     25 C7          -0.7160    -1.1860     1.3900 c3         1 M8B      -0.062400
     26 C1          -1.9890    -1.0350     0.5590 c3         1 M8B       0.115000
     27 C25         -2.3200    -2.3670    -0.1590 c3         1 M8B      -0.058100
     28 O1          -1.7610    -0.0040    -0.3790 oh         1 M8B      -0.661000
     29 C2          -3.1730    -0.6980     1.4800 c          1 M8B       0.577100
     30 O2          -3.5180    -1.4720     2.3610 o          1 M8B      -0.617100
     31 N1          -3.7830     0.4650     1.2140 ns         1 M8B      -0.489900
     32 C3          -5.0960     0.8280     1.6900 c3         1 M8B       0.045700
     33 C4          -5.0850     1.9860     2.7180 c3         1 M8B      -0.043000
     34 C6          -4.3680     3.2310     2.1970 c3         1 M8B      -0.086433
     35 C35         -6.5290     2.3390     3.0760 c3         1 M8B      -0.086433
     36 C5          -4.3680     1.4880     3.9750 c3         1 M8B      -0.086433
     37 C34         -5.9210     1.1180     0.4360 c          1 M8B       0.580100
     38 O6          -5.5550     1.9420    -0.3930 o          1 M8B      -0.615100
     39 N5          -7.0320     0.3910     0.2870 ns         1 M8B      -0.489900
     40 C37         -7.8240     0.4450    -0.9310 c3         1 M8B       0.135200
     41 C36         -8.8240    -0.6680    -0.9500 c2         1 M8B      -0.248200
     42 C33         -8.7250    -1.7640    -1.6980 c2         1 M8B      -0.188200
     43 C32         -7.5980    -2.0890    -2.6470 c3         1 M8B      -0.004900
     44 C29         -6.2310    -2.1680    -2.0090 ca         1 M8B      -0.072300
     45 C28         -5.1030    -1.7020    -2.6750 ca         1 M8B      -0.108000
     46 C27         -3.8390    -1.8030    -2.1040 ca         1 M8B      -0.104500
     47 C26         -3.6640    -2.3550    -0.8370 ca         1 M8B      -0.097300
     48 C31         -4.7950    -2.8430    -0.1830 ca         1 M8B      -0.104500
     49 C30         -6.0510    -2.7540    -0.7570 ca         1 M8B      -0.108000
     50 H191         7.6730     1.9550    -3.1900 h1         1 M8B       0.047367
     51 H192         7.1620     3.5400    -2.5790 h1         1 M8B       0.047367
     52 H193         7.6600     2.2640    -1.4470 h1         1 M8B       0.047367
     53 H4           3.6560     1.1280    -2.2880 hn         1 M8B       0.343500
     54 H13          3.0240     2.8460     0.0170 h1         1 M8B       0.079700
     55 H161         0.5210     1.1180    -2.3450 hc         1 M8B       0.040811
     56 H162         0.1220     2.6510    -3.1140 hc         1 M8B       0.040811
     57 H163         1.6940     1.9230    -3.3990 hc         1 M8B       0.040811
     58 H171         0.6910     3.5810     0.4740 hc         1 M8B       0.040811
     59 H172        -0.4490     3.6890    -0.8630 hc         1 M8B       0.040811
     60 H173        -0.1160     2.1280    -0.1320 hc         1 M8B       0.040811
     61 H151         2.7330     4.1490    -2.6810 hc         1 M8B       0.040811
     62 H152         1.1280     4.8010    -2.3680 hc         1 M8B       0.040811
     63 H153         2.3520     4.8360    -1.0990 hc         1 M8B       0.040811
     64 H3           2.4560     1.7650     1.7200 hn         1 M8B       0.302500
     65 H101         3.5980     0.2150     3.4390 h1         1 M8B       0.046700
     66 H102         3.1720    -1.4850     3.2530 h1         1 M8B       0.046700
     67 H91C         0.9590    -1.0170     3.5740 h1         1 M8B       0.037700
     68 H92C         1.1000     0.7350     3.6470 h1         1 M8B       0.037700
     69 H20          5.4470     1.0940     2.2490 ha         1 M8B       0.121500
     70 H24          3.6670    -2.5500     0.8970 ha         1 M8B       0.121500
     71 H21          7.2280     0.8590     0.5820 ha         1 M8B       0.130500
     72 H23          5.4410    -2.8090    -0.7760 ha         1 M8B       0.130500
     73 H81C        -1.1390     0.1520     3.0370 hc         1 M8B       0.052200
     74 H82C        -0.3950     0.9410     1.6660 hc         1 M8B       0.052200
     75 H71C         0.1110    -1.3800     0.7040 hc         1 M8B       0.072200
     76 H72C        -0.8170    -2.0650     2.0310 hc         1 M8B       0.072200
     77 H1          -2.3570    -0.1050    -1.1300 ho         1 M8B       0.455000
     78 H251        -1.5230    -2.5490    -0.8850 hc         1 M8B       0.072200
     79 H252        -2.2780    -3.1790     0.5680 hc         1 M8B       0.072200
     80 HA          -3.3860     1.0310     0.4800 hn         1 M8B       0.340500
     81 HB          -5.5060    -0.0470     2.2000 h1         1 M8B       0.076700
     82 H61C        -4.8680     3.6640     1.3320 hc         1 M8B       0.038811
     83 H62C        -4.3400     3.9910     2.9800 hc         1 M8B       0.038811
     84 H63C        -3.3340     3.0170     1.9200 hc         1 M8B       0.038811
     85 H351        -7.0810     1.4660     3.4340 hc         1 M8B       0.038811
     86 H352        -6.5490     3.0860     3.8720 hc         1 M8B       0.038811
     87 H353        -7.0750     2.7570     2.2280 hc         1 M8B       0.038811
     88 H51C        -3.3290     1.2280     3.7710 hc         1 M8B       0.038811
     89 H52C        -4.3680     2.2660     4.7410 hc         1 M8B       0.038811
     90 H53C        -4.8590     0.6070     4.3930 hc         1 M8B       0.038811
     91 H5          -7.2320    -0.3400     0.9510 hn         1 M8B       0.319500
     92 H371        -8.3420     1.4060    -0.9890 h1         1 M8B       0.057700
     93 H372        -7.1600     0.3880    -1.7950 h1         1 M8B       0.057700
     94 H36         -9.6830    -0.5590    -0.2960 ha         1 M8B       0.176000
     95 H33         -9.5210    -2.4960    -1.6270 ha         1 M8B       0.174000
     96 H321        -7.8170    -3.0470    -3.1240 hc         1 M8B       0.057700
     97 H322        -7.5710    -1.3590    -3.4610 hc         1 M8B       0.057700
     98 H28         -5.2050    -1.2560    -3.6580 ha         1 M8B       0.113500
     99 H30         -6.9070    -3.1430    -0.2190 ha         1 M8B       0.113500
    100 H27         -2.9800    -1.4610    -2.6730 ha         1 M8B       0.121500
    101 H31         -4.6920    -3.2940     0.7950 ha         1 M8B       0.121500
@<TRIPOS>BOND
     1     1     2 1   
     2     1    50 1   
     3     1    51 1   
     4     1    52 1   
     5     2     3 1   
     6     3     4 2   
     7     3     5 1   
     8     5     6 1   
     9     5    53 1   
    10     6     7 1   
    11     6    11 1   
    12     6    54 1   
    13     7     8 1   
    14     7     9 1   
    15     7    10 1   
    16     8    55 1   
    17     8    56 1   
    18     8    57 1   
    19     9    58 1   
    20     9    59 1   
    21     9    60 1   
    22    10    61 1   
    23    10    62 1   
    24    10    63 1   
    25    11    12 2   
    26    11    13 1   
    27    13    14 1   
    28    13    64 1   
    29    14    15 1   
    30    14    23 1   
    31    15    16 1   
    32    15    65 1   
    33    15    66 1   
    34    16    17 ar  
    35    16    22 ar  
    36    17    18 ar  
    37    17    69 1   
    38    18    19 ar  
    39    18    71 1   
    40    19    20 1   
    41    19    21 ar  
    42    21    22 ar  
    43    21    72 1   
    44    22    70 1   
    45    23    24 1   
    46    23    67 1   
    47    23    68 1   
    48    24    25 1   
    49    24    73 1   
    50    24    74 1   
    51    25    26 1   
    52    25    75 1   
    53    25    76 1   
    54    26    27 1   
    55    26    28 1   
    56    26    29 1   
    57    27    47 1   
    58    27    78 1   
    59    27    79 1   
    60    28    77 1   
    61    29    30 2   
    62    29    31 1   
    63    31    32 1   
    64    31    80 1   
    65    32    33 1   
    66    32    37 1   
    67    32    81 1   
    68    33    34 1   
    69    33    35 1   
    70    33    36 1   
    71    34    82 1   
    72    34    83 1   
    73    34    84 1   
    74    35    85 1   
    75    35    86 1   
    76    35    87 1   
    77    36    88 1   
    78    36    89 1   
    79    36    90 1   
    80    37    38 2   
    81    37    39 1   
    82    39    40 1   
    83    39    91 1   
    84    40    41 1   
    85    40    92 1   
    86    40    93 1   
    87    41    42 2   
    88    41    94 1   
    89    42    43 1   
    90    42    95 1   
    91    43    44 1   
    92    43    96 1   
    93    43    97 1   
    94    44    45 ar  
    95    44    49 ar  
    96    45    46 ar  
    97    45    98 1   
    98    46    47 ar  
    99    46   100 1   
   100    47    48 ar  
   101    48    49 ar  
   102    48   101 1   
   103    49    99 1   
@<TRIPOS>SUBSTRUCTURE
     1 M8B         1 TEMP              0 ****  ****    0 ROOT
