@<TRIPOS>MOLECULE
M8C
   26    26     1     0     0
SMALL
bcc


@<TRIPOS>ATOM
      1 C1          28.0850    -1.2200     0.1030 c6         1 M8C       0.312900
      2 C2          27.7170     0.2380    -0.1820 c6         1 M8C       0.091100
      3 C3          26.4100     0.5960     0.5140 c6         1 M8C       0.115100
      4 O4          24.9660    -0.2700    -1.2450 oh         1 M8C      -0.588800
      5 C5          25.8060    -1.8090     0.3490 c6         1 M8C       0.090100
      6 C6          24.8020    -2.8080    -0.1960 c          1 M8C       0.657100
      7 O6A         25.0020    -3.5620    -1.1090 o          1 M8C      -0.496000
      8 O6B         23.6680    -2.7330     0.4830 os         1 M8C      -0.427900
      9 CH3         22.6000    -3.5930     0.0870 c3         1 M8C       0.132700
     10 O5          27.0280    -2.0600    -0.2980 os         1 M8C      -0.400600
     11 C4          25.3110    -0.3830     0.1120 c6         1 M8C       0.130100
     12 O3          25.9680     1.8850     0.1670 oh         1 M8C      -0.607800
     13 O2          28.6940     1.1450     0.2660 oh         1 M8C      -0.588800
     14 O1          28.3910    -1.3530     1.4500 oh         1 M8C      -0.601800
     15 H1          28.9270    -1.5240    -0.5300 h2         1 M8C       0.069700
     16 H2          27.5670     0.3230    -1.2660 h1         1 M8C       0.067700
     17 H3          26.5520     0.5100     1.6010 h1         1 M8C       0.069700
     18 HO4         24.7790     0.6570    -1.4300 ho         1 M8C       0.425000
     19 H5          25.8870    -1.9620     1.4330 h1         1 M8C       0.077700
     20 HH31        21.7810    -3.3830     0.7670 h1         1 M8C       0.049033
     21 HH32        22.2840    -3.3880    -0.9350 h1         1 M8C       0.049033
     22 HH33        22.8830    -4.6420     0.1730 h1         1 M8C       0.049033
     23 H4          24.4420    -0.2100     0.7620 h1         1 M8C       0.066700
     24 HO3         26.7130     2.4900     0.2430 ho         1 M8C       0.429000
     25 HO2         29.4160     1.1700    -0.3700 ho         1 M8C       0.412000
     26 HO1         28.8260    -2.2000     1.5940 ho         1 M8C       0.419000
@<TRIPOS>BOND
     1     1     2 1   
     2     1    10 1   
     3     1    14 1   
     4     1    15 1   
     5     2     3 1   
     6     2    13 1   
     7     2    16 1   
     8     3    11 1   
     9     3    12 1   
    10     3    17 1   
    11     4    11 1   
    12     4    18 1   
    13     5     6 1   
    14     5    10 1   
    15     5    11 1   
    16     5    19 1   
    17     6     7 2   
    18     6     8 1   
    19     8     9 1   
    20     9    20 1   
    21     9    21 1   
    22     9    22 1   
    23    11    23 1   
    24    12    24 1   
    25    13    25 1   
    26    14    26 1   
@<TRIPOS>SUBSTRUCTURE
     1 M8C         1 TEMP              0 ****  ****    0 ROOT
