@<TRIPOS>MOLECULE
M8C
   26    26     1     0     0
SMALL
No Charge or Current Charge


@<TRIPOS>ATOM
      1 C1          28.1660    -1.1190    -0.1660 c6         1 M8C       0.359300
      2 C2          27.7330     0.3840    -0.2880 c6         1 M8C       0.114300
      3 C3          26.3870     0.6430     0.4620 c6         1 M8C       0.138300
      4 O4          24.8990    -0.0610    -1.3380 oh         1 M8C      -0.711000
      5 C5          25.8360    -1.8170     0.1600 c6         1 M8C       0.113300
      6 C6          24.7750    -2.8970    -0.1830 c          1 M8C       0.608100
      7 O6A         25.0450    -3.9240    -0.7980 o          1 M8C      -0.447000
      8 O6B         23.5670    -2.6960     0.4450 os         1 M8C      -0.451100
      9 CH3         22.5280    -3.6740     0.2520 c3         1 M8C       0.155900
     10 O5          27.0960    -1.9930    -0.5670 os         1 M8C      -0.447000
     11 C4          25.2850    -0.3650     0.0160 c6         1 M8C       0.153300
     12 O3          25.9510     1.9980     0.2240 oh         1 M8C      -0.730000
     13 O2          28.7610     1.2720     0.2130 oh         1 M8C      -0.711000
     14 O1          28.5140    -1.4460     1.1780 oh         1 M8C      -0.724000
     15 H1          29.0330    -1.2900    -0.8240 h2         1 M8C       0.069700
     16 H2          27.5710     0.5820    -1.3580 h1         1 M8C       0.067700
     17 H3          26.5610     0.4910     1.5390 h1         1 M8C       0.069700
     18 HO4         24.9240     0.9270    -1.3730 ho         1 M8C       0.524000
     19 H5          26.0290    -1.9840     1.2290 h1         1 M8C       0.077700
     20 HH31        21.6220    -3.3820     0.7990 h1         1 M8C       0.049033
     21 HH32        22.2680    -3.7650    -0.8110 h1         1 M8C       0.049033
     22 HH33        22.8430    -4.6600     0.6190 h1         1 M8C       0.049033
     23 H4          24.4230    -0.2450     0.6910 h1         1 M8C       0.066700
     24 HO3         26.7720     2.5460     0.2950 ho         1 M8C       0.528000
     25 HO2         29.1740     0.7900     0.9710 ho         1 M8C       0.511000
     26 HO1         28.7450    -2.4020     1.1550 ho         1 M8C       0.518000
@<TRIPOS>BOND
     1     1     2 1   
     2     1    10 1   
     3     1    14 1   
     4     1    15 1   
     5     2     3 1   
     6     2    13 1   
     7     2    16 1   
     8     3    11 1   
     9     3    12 1   
    10     3    17 1   
    11     4    11 1   
    12     4    18 1   
    13     5     6 1   
    14     5    10 1   
    15     5    11 1   
    16     5    19 1   
    17     6     7 2   
    18     6     8 1   
    19     8     9 1   
    20     9    20 1   
    21     9    21 1   
    22     9    22 1   
    23    11    23 1   
    24    12    24 1   
    25    13    25 1   
    26    14    26 1   
@<TRIPOS>SUBSTRUCTURE
     1 M8C         1 TEMP              0 ****  ****    0 ROOT
