@<TRIPOS>MOLECULE
M8D
   52    54     1     0     0
SMALL
abcg2


@<TRIPOS>ATOM
      1 N2          -1.4430    -4.8470     1.2760 n8         1 M8D      -0.996200
      2 C21         -1.8320    -4.3390    -0.0290 c3         1 M8D       0.197100
      3 C18         -2.4120    -2.9510     0.0640 ca         1 M8D      -0.088300
      4 C16         -2.0350    -1.9670    -0.8450 ca         1 M8D      -0.114000
      5 C20         -3.3430    -2.6260     1.0470 ca         1 M8D      -0.085000
      6 C19         -3.8860    -1.3500     1.1010 ca         1 M8D      -0.114000
      7 C17         -3.5020    -0.3800     0.1850 ca         1 M8D      -0.097000
      8 C15         -2.5670    -0.6810    -0.8010 ca         1 M8D      -0.081300
      9 C14         -2.1420     0.3540    -1.8170 c3         1 M8D       0.011200
     10 C3          -1.7820     1.6870    -1.2160 ca         1 M8D      -0.038300
     11 C5          -2.5960     2.7790    -1.4040 ca         1 M8D      -0.131000
     12 C4          -2.2780     4.0280    -0.8410 ca         1 M8D      -0.091000
     13 C2          -1.1420     4.1900    -0.0940 ca         1 M8D      -0.102000
     14 C1          -0.6030     1.8400    -0.4420 ca         1 M8D      -0.113000
     15 C8           0.3070     0.7840    -0.1860 ca         1 M8D      -0.030000
     16 C7           1.4380     0.9710     0.5480 ca         1 M8D      -0.174300
     17 C6           1.6710     2.2940     1.0600 ca         1 M8D       0.619900
     18 N1           2.8080     2.5610     1.7580 nv         1 M8D      -1.062900
     19 N            0.8440     3.2920     0.8550 nb         1 M8D      -0.763000
     20 C           -0.2730     3.0960     0.1190 ca         1 M8D       0.325000
     21 C10          2.4150    -0.1490     0.7570 c3         1 M8D      -0.019100
     22 C9           3.5680    -0.1230    -0.2490 c3         1 M8D      -0.078400
     23 C12          4.5510    -1.2670    -0.0370 c3         1 M8D      -0.076400
     24 C11          5.6700    -1.2940    -1.0700 c3         1 M8D      -0.075400
     25 C13          6.6410    -2.4470    -0.8610 c3         1 M8D      -0.089100
     26 H1          -1.1450    -5.8100     1.1840 hn         1 M8D       0.395000
     27 H2          -0.6340    -4.3360     1.6070 hn         1 M8D       0.395000
     28 H4          -1.0160    -4.3310    -0.7640 h1         1 M8D       0.033700
     29 H5          -2.5940    -5.0110    -0.4350 h1         1 M8D       0.033700
     30 H6          -1.2980    -2.2030    -1.6070 ha         1 M8D       0.103000
     31 H7          -3.6380    -3.3730     1.7730 ha         1 M8D       0.128000
     32 H8          -4.6120    -1.1080     1.8670 ha         1 M8D       0.113000
     33 H9          -3.9270     0.6150     0.2430 ha         1 M8D       0.118000
     34 H10         -1.3050    -0.0420    -2.3970 hc         1 M8D       0.054700
     35 H11         -2.9540     0.5040    -2.5340 hc         1 M8D       0.054700
     36 H12         -3.4970     2.6790    -1.9980 ha         1 M8D       0.111000
     37 H13         -2.9400     4.8690    -1.0070 ha         1 M8D       0.113000
     38 H14         -0.8880     5.1490     0.3400 ha         1 M8D       0.128000
     39 H15          0.1040    -0.2060    -0.5750 ha         1 M8D       0.119000
     40 H16          3.2990     1.8060     2.2050 hn         1 M8D       0.474000
     41 H17          2.8230     3.4270     2.2710 hn         1 M8D       0.474000
     42 H18          2.8140    -0.1430     1.7770 hc         1 M8D       0.040700
     43 H19          1.8820    -1.0980     0.6600 hc         1 M8D       0.040700
     44 H20          3.1510    -0.1790    -1.2590 hc         1 M8D       0.047700
     45 H21          4.0990     0.8320    -0.1900 hc         1 M8D       0.047700
     46 H22          4.9840    -1.1950     0.9670 hc         1 M8D       0.034700
     47 H23          4.0090    -2.2190    -0.0640 hc         1 M8D       0.034700
     48 H24          5.2330    -1.3600    -2.0710 hc         1 M8D       0.038700
     49 H25          6.2150    -0.3450    -1.0410 hc         1 M8D       0.038700
     50 H26          7.4240    -2.4550    -1.6200 hc         1 M8D       0.031700
     51 H27          7.1280    -2.3820     0.1150 hc         1 M8D       0.031700
     52 H28          6.1270    -3.4090    -0.9050 hc         1 M8D       0.031700
@<TRIPOS>BOND
     1     1     2 1   
     2     1    26 1   
     3     1    27 1   
     4     2     3 1   
     5     2    28 1   
     6     2    29 1   
     7     3     4 ar  
     8     3     5 ar  
     9     4     8 ar  
    10     4    30 1   
    11     5     6 ar  
    12     5    31 1   
    13     6     7 ar  
    14     6    32 1   
    15     7     8 ar  
    16     7    33 1   
    17     8     9 1   
    18     9    10 1   
    19     9    34 1   
    20     9    35 1   
    21    10    11 ar  
    22    10    14 ar  
    23    11    12 ar  
    24    11    36 1   
    25    12    13 ar  
    26    12    37 1   
    27    13    20 ar  
    28    13    38 1   
    29    14    15 ar  
    30    14    20 ar  
    31    15    16 ar  
    32    15    39 1   
    33    16    17 ar  
    34    16    21 1   
    35    17    18 1   
    36    17    19 ar  
    37    18    40 1   
    38    18    41 1   
    39    19    20 ar  
    40    21    22 1   
    41    21    42 1   
    42    21    43 1   
    43    22    23 1   
    44    22    44 1   
    45    22    45 1   
    46    23    24 1   
    47    23    46 1   
    48    23    47 1   
    49    24    25 1   
    50    24    48 1   
    51    24    49 1   
    52    25    50 1   
    53    25    51 1   
    54    25    52 1   
@<TRIPOS>SUBSTRUCTURE
     1 M8D         1 TEMP              0 ****  ****    0 ROOT
