@<TRIPOS>MOLECULE
M8D
   52    54     1     0     0
SMALL
No Charge or Current Charge


@<TRIPOS>ATOM
      1 N2          -0.8790    -4.5480     1.0870 n8         1 M8D      -0.996200
      2 C21         -1.9150    -4.3660     0.0540 c3         1 M8D       0.197100
      3 C18         -2.4930    -2.9560     0.0820 ca         1 M8D      -0.088300
      4 C16         -2.0650    -1.9910    -0.8520 ca         1 M8D      -0.114000
      5 C20         -3.4690    -2.6100     1.0360 ca         1 M8D      -0.085000
      6 C19         -4.0130    -1.3150     1.0540 ca         1 M8D      -0.114000
      7 C17         -3.5830    -0.3570     0.1200 ca         1 M8D      -0.097000
      8 C15         -2.6020    -0.6870    -0.8360 ca         1 M8D      -0.081300
      9 C14         -2.1360     0.3530    -1.8520 c3         1 M8D       0.011200
     10 C3          -1.7530     1.6870    -1.2020 ca         1 M8D      -0.038300
     11 C5          -2.6100     2.7890    -1.3850 ca         1 M8D      -0.131000
     12 C4          -2.3130     4.0310    -0.8090 ca         1 M8D      -0.091000
     13 C2          -1.1510     4.1840    -0.0400 ca         1 M8D      -0.102000
     14 C1          -0.5760     1.8460    -0.4210 ca         1 M8D      -0.113000
     15 C8           0.3180     0.7740    -0.2010 ca         1 M8D      -0.030000
     16 C7           1.4630     0.9890     0.5820 ca         1 M8D      -0.174300
     17 C6           1.6560     2.2830     1.0990 ca         1 M8D       0.619900
     18 N1           2.6860     2.6630     1.8610 nv         1 M8D      -1.062900
     19 N            0.8370     3.3070     0.9160 nb         1 M8D      -0.763000
     20 C           -0.2710     3.1070     0.1660 ca         1 M8D       0.325000
     21 C10          2.4430    -0.1570     0.8280 c3         1 M8D      -0.019100
     22 C9           3.5650    -0.1980    -0.2320 c3         1 M8D      -0.078400
     23 C12          4.5610    -1.3590    -0.0170 c3         1 M8D      -0.076400
     24 C11          5.6800    -1.3980    -1.0810 c3         1 M8D      -0.075400
     25 C13          6.6740    -2.5560    -0.8680 c3         1 M8D      -0.089100
     26 H1          -0.4530    -5.4750     0.9690 hn         1 M8D       0.395000
     27 H2          -0.1090    -3.8980     0.8940 hn         1 M8D       0.395000
     28 H4          -1.4710    -4.5680    -0.9310 h1         1 M8D       0.033700
     29 H5          -2.7160    -5.0980     0.2230 h1         1 M8D       0.033700
     30 H6          -1.3140    -2.2570    -1.5910 ha         1 M8D       0.103000
     31 H7          -3.8060    -3.3470     1.7620 ha         1 M8D       0.128000
     32 H8          -4.7680    -1.0530     1.7920 ha         1 M8D       0.113000
     33 H9          -4.0130     0.6420     0.1420 ha         1 M8D       0.118000
     34 H10         -1.2900    -0.0270    -2.4390 hc         1 M8D       0.054700
     35 H11         -2.9350     0.5070    -2.5870 hc         1 M8D       0.054700
     36 H12         -3.5170     2.6850    -1.9770 ha         1 M8D       0.111000
     37 H13         -2.9830     4.8750    -0.9570 ha         1 M8D       0.113000
     38 H14         -0.9270     5.1500     0.4040 ha         1 M8D       0.128000
     39 H15          0.1430    -0.2110    -0.6230 ha         1 M8D       0.119000
     40 H16          3.1840     1.9380     2.3620 hn         1 M8D       0.474000
     41 H17          2.5570     3.5440     2.3400 hn         1 M8D       0.474000
     42 H18          2.8880    -0.0820     1.8280 hc         1 M8D       0.040700
     43 H19          1.9070    -1.1150     0.8130 hc         1 M8D       0.040700
     44 H20          3.1120    -0.2900    -1.2270 hc         1 M8D       0.047700
     45 H21          4.1100     0.7540    -0.2150 hc         1 M8D       0.047700
     46 H22          5.0130    -1.2670     0.9780 hc         1 M8D       0.034700
     47 H23          4.0150    -2.3110    -0.0350 hc         1 M8D       0.034700
     48 H24          5.2320    -1.4920    -2.0780 hc         1 M8D       0.038700
     49 H25          6.2300    -0.4490    -1.0650 hc         1 M8D       0.038700
     50 H26          7.4480    -2.5430    -1.6450 hc         1 M8D       0.031700
     51 H27          7.1670    -2.4710     0.1080 hc         1 M8D       0.031700
     52 H28          6.1590    -3.5230    -0.9130 hc         1 M8D       0.031700
@<TRIPOS>BOND
     1     1     2 1   
     2     1    26 1   
     3     1    27 1   
     4     2     3 1   
     5     2    28 1   
     6     2    29 1   
     7     3     4 ar  
     8     3     5 ar  
     9     4     8 ar  
    10     4    30 1   
    11     5     6 ar  
    12     5    31 1   
    13     6     7 ar  
    14     6    32 1   
    15     7     8 ar  
    16     7    33 1   
    17     8     9 1   
    18     9    10 1   
    19     9    34 1   
    20     9    35 1   
    21    10    11 ar  
    22    10    14 ar  
    23    11    12 ar  
    24    11    36 1   
    25    12    13 ar  
    26    12    37 1   
    27    13    20 ar  
    28    13    38 1   
    29    14    15 ar  
    30    14    20 ar  
    31    15    16 ar  
    32    15    39 1   
    33    16    17 ar  
    34    16    21 1   
    35    17    18 1   
    36    17    19 ar  
    37    18    40 1   
    38    18    41 1   
    39    19    20 ar  
    40    21    22 1   
    41    21    42 1   
    42    21    43 1   
    43    22    23 1   
    44    22    44 1   
    45    22    45 1   
    46    23    24 1   
    47    23    46 1   
    48    23    47 1   
    49    24    25 1   
    50    24    48 1   
    51    24    49 1   
    52    25    50 1   
    53    25    51 1   
    54    25    52 1   
@<TRIPOS>SUBSTRUCTURE
     1 M8D         1 TEMP              0 ****  ****    0 ROOT
