@<TRIPOS>MOLECULE
M8F
   48    47     1     0     0
SMALL
abcg2


@<TRIPOS>ATOM
      1 C8          11.6850    39.6550     5.8650 c          1 M8F       0.600100
      2 O9          10.9570    39.5260     6.8510 o          1 M8F      -0.615100
      3 O4          17.3370    36.2430     4.2960 o          1 M8F      -0.744500
      4 C7          13.1780    39.4260     5.9250 c3         1 M8F      -0.152400
      5 C2          16.8970    36.0530     5.4610 c          1 M8F       0.683000
      6 C1          15.3610    36.1760     5.6490 c3         1 M8F       0.020500
      7 C5          15.0020    37.6600     5.8080 c3         1 M8F      -0.048400
      8 C6          13.5030    37.9370     5.7390 c3         1 M8F      -0.073400
      9 N1          14.8240    35.4020     6.7760 n8         1 M8F      -0.992200
     10 N10         11.1950    39.9740     4.6480 ns         1 M8F      -0.493900
     11 C11          9.7790    40.0140     4.3730 c3         1 M8F       0.038700
     12 C14          9.1490    38.6040     4.4170 c          1 M8F       0.574100
     13 O15          9.8260    37.5890     4.2490 o          1 M8F      -0.624100
     14 C12          9.5150    40.6870     3.0270 c3         1 M8F       0.079600
     15 S13         10.2590    39.7300     1.6390 sh         1 M8F      -0.429800
     16 N16          7.8270    38.6070     4.5940 ns         1 M8F      -0.466900
     17 C17          6.9750    37.4310     4.6300 c3         1 M8F      -0.027300
     18 C22          5.5610    37.8650     5.1220 c          1 M8F       0.720000
     19 O24          4.6880    36.9700     5.1310 o          1 M8F      -0.731000
     20 C18          6.9670    36.6360     3.3150 c3         1 M8F      -0.067400
     21 C19          6.9280    37.4510     2.0280 c3         1 M8F       0.095600
     22 S20          5.4870    38.5390     1.7890 ss         1 M8F      -0.486000
     23 C21          4.1460    37.3190     1.7130 c3         1 M8F       0.051900
     24 O23          5.4320    39.0520     5.5180 o          1 M8F      -0.731000
     25 H7          13.5300    39.7650     6.9000 hc         1 M8F       0.046200
     26 H7A         13.6840    40.0140     5.1550 hc         1 M8F       0.046200
     27 H1          14.8910    35.8060     4.7340 h1         1 M8F       0.045700
     28 H5          15.3970    38.0130     6.7670 hc         1 M8F       0.032200
     29 H5A         15.5110    38.2290     5.0260 hc         1 M8F       0.032200
     30 H6          13.1180    37.6030     4.7710 hc         1 M8F       0.060200
     31 H6A         12.9870    37.3560     6.5050 hc         1 M8F       0.060200
     32 HN1         14.9350    34.4130     6.5740 hn         1 M8F       0.378000
     33 HN1A        15.4350    35.5720     7.5720 hn         1 M8F       0.378000
     34 HN10        11.8210    39.9550     3.8560 hn         1 M8F       0.322500
     35 H11          9.2920    40.6230     5.1370 h1         1 M8F       0.082700
     36 H12          8.4430    40.7700     2.8690 h1         1 M8F       0.066700
     37 H12A         9.9570    41.6810     3.0280 h1         1 M8F       0.066700
     38 HS13        10.2880    40.7490     0.7650 hs         1 M8F       0.178800
     39 HN16         7.3330    39.4580     4.8370 hn         1 M8F       0.344500
     40 H17          7.3470    36.7520     5.4060 h1         1 M8F       0.051700
     41 H18          7.8710    36.0250     3.2700 hc         1 M8F       0.049700
     42 H18A         6.1210    35.9500     3.3600 hc         1 M8F       0.049700
     43 H19          7.7850    38.1220     1.9660 h1         1 M8F       0.054200
     44 H19A         6.9830    36.7750     1.1730 h1         1 M8F       0.054200
     45 H21          4.0260    36.8280     2.6770 h1         1 M8F       0.056367
     46 H21A         3.2350    37.8640     1.4690 h1         1 M8F       0.056367
     47 H21B         4.3440    36.5830     0.9330 h1         1 M8F       0.056367
     48 O3          17.5860    35.8050     6.4830 o          1 M8F      -0.744500
@<TRIPOS>BOND
     1     1     2 2   
     2     1     4 1   
     3     1    10 1   
     4     3     5 1   
     5     4     8 1   
     6     4    25 1   
     7     4    26 1   
     8     5     6 1   
     9     5    48 1   
    10     6     7 1   
    11     6     9 1   
    12     6    27 1   
    13     7     8 1   
    14     7    28 1   
    15     7    29 1   
    16     8    30 1   
    17     8    31 1   
    18     9    32 1   
    19     9    33 1   
    20    10    11 1   
    21    10    34 1   
    22    11    12 1   
    23    11    14 1   
    24    11    35 1   
    25    12    13 2   
    26    12    16 1   
    27    14    15 1   
    28    14    36 1   
    29    14    37 1   
    30    15    38 1   
    31    16    17 1   
    32    16    39 1   
    33    17    18 1   
    34    17    20 1   
    35    17    40 1   
    36    18    19 1   
    37    18    24 1   
    38    20    21 1   
    39    20    41 1   
    40    20    42 1   
    41    21    22 1   
    42    21    43 1   
    43    21    44 1   
    44    22    23 1   
    45    23    45 1   
    46    23    46 1   
    47    23    47 1   
@<TRIPOS>SUBSTRUCTURE
     1 M8F         1 TEMP              0 ****  ****    0 ROOT
