@<TRIPOS>MOLECULE
M8F
   48    47     1     0     0
SMALL
No Charge or Current Charge


@<TRIPOS>ATOM
      1 C8          12.1490    39.2480     5.2830 c          1 M8F       0.600100
      2 O9          11.9410    40.1330     6.1000 o          1 M8F      -0.615100
      3 O4          17.4740    34.5760     5.9600 o          1 M8F      -0.744500
      4 C7          13.5610    38.7750     4.9160 c3         1 M8F      -0.152400
      5 C2          17.5330    35.7750     6.1980 c          1 M8F       0.683000
      6 C1          16.2430    36.4900     6.7780 c3         1 M8F       0.020500
      7 C5          15.6110    37.4130     5.7010 c3         1 M8F      -0.048400
      8 C6          14.1830    37.9090     6.0390 c3         1 M8F      -0.073400
      9 N1          16.4290    37.2290     8.0810 n8         1 M8F      -0.992200
     10 N10         11.1310    38.6210     4.6040 ns         1 M8F      -0.493900
     11 C11          9.6900    38.9390     4.7390 c3         1 M8F       0.038700
     12 C14          8.8250    37.8000     4.1270 c          1 M8F       0.574100
     13 O15          9.3030    36.8620     3.4990 o          1 M8F      -0.624100
     14 C12          9.3430    40.3140     4.1120 c3         1 M8F       0.079600
     15 S13          9.8130    40.4850     2.3230 sh         1 M8F      -0.429800
     16 N16          7.4670    37.9060     4.3570 ns         1 M8F      -0.466900
     17 C17          6.4240    36.9820     3.8450 c3         1 M8F      -0.027300
     18 C22          5.0750    37.1670     4.6210 c          1 M8F       0.720000
     19 O24          4.2030    36.3220     4.4660 o          1 M8F      -0.731000
     20 C18          6.2650    37.0620     2.2970 c3         1 M8F      -0.067400
     21 C19          6.1470    38.4810     1.6860 c3         1 M8F       0.095600
     22 S20          4.5750    39.3530     2.1410 ss         1 M8F      -0.486000
     23 C21          3.3410    38.3590     1.1810 c3         1 M8F       0.051900
     24 O23          4.9930    38.0610     5.4570 o          1 M8F      -0.731000
     25 H7          14.1980    39.6550     4.7650 hc         1 M8F       0.046200
     26 H7A         13.5290    38.1790     3.9960 hc         1 M8F       0.046200
     27 H1          15.5190    35.6870     6.9750 h1         1 M8F       0.045700
     28 H5          16.2660    38.2750     5.5260 hc         1 M8F       0.032200
     29 H5A         15.5680    36.8590     4.7540 hc         1 M8F       0.032200
     30 H6          13.5350    37.0430     6.2250 hc         1 M8F       0.060200
     31 H6A         14.2080    38.4930     6.9670 hc         1 M8F       0.060200
     32 HN1         16.8000    36.5770     8.7830 hn         1 M8F       0.378000
     33 HN1A        17.1980    37.9000     7.9600 hn         1 M8F       0.378000
     34 HN10        11.3960    37.8980     3.9440 hn         1 M8F       0.322500
     35 H11          9.4430    38.9760     5.8080 h1         1 M8F       0.082700
     36 H12          8.2660    40.5070     4.2060 h1         1 M8F       0.066700
     37 H12A         9.8630    41.1030     4.6700 h1         1 M8F       0.066700
     38 HS13         9.3940    41.7650     2.1790 hs         1 M8F       0.178800
     39 HN16         7.1510    38.6790     4.9340 hn         1 M8F       0.344500
     40 H17          6.7520    35.9620     4.0840 h1         1 M8F       0.051700
     41 H18          7.1450    36.5900     1.8450 hc         1 M8F       0.049700
     42 H18A         5.4140    36.4480     1.9820 hc         1 M8F       0.049700
     43 H19          6.9990    39.0950     2.0070 h1         1 M8F       0.054200
     44 H19A         6.1940    38.4050     0.5910 h1         1 M8F       0.054200
     45 H21          3.2980    37.3330     1.5680 h1         1 M8F       0.056367
     46 H21A         2.3470    38.8140     1.2760 h1         1 M8F       0.056367
     47 H21B         3.6220    38.3340     0.1200 h1         1 M8F       0.056367
     48 O3          18.5730    36.4180     6.1190 o          1 M8F      -0.744500
@<TRIPOS>BOND
     1     1     2 2   
     2     1     4 1   
     3     1    10 1   
     4     3     5 1   
     5     4     8 1   
     6     4    25 1   
     7     4    26 1   
     8     5     6 1   
     9     5    48 1   
    10     6     7 1   
    11     6     9 1   
    12     6    27 1   
    13     7     8 1   
    14     7    28 1   
    15     7    29 1   
    16     8    30 1   
    17     8    31 1   
    18     9    32 1   
    19     9    33 1   
    20    10    11 1   
    21    10    34 1   
    22    11    12 1   
    23    11    14 1   
    24    11    35 1   
    25    12    13 2   
    26    12    16 1   
    27    14    15 1   
    28    14    36 1   
    29    14    37 1   
    30    15    38 1   
    31    16    17 1   
    32    16    39 1   
    33    17    18 1   
    34    17    20 1   
    35    17    40 1   
    36    18    19 1   
    37    18    24 1   
    38    20    21 1   
    39    20    41 1   
    40    20    42 1   
    41    21    22 1   
    42    21    43 1   
    43    21    44 1   
    44    22    23 1   
    45    23    45 1   
    46    23    46 1   
    47    23    47 1   
@<TRIPOS>SUBSTRUCTURE
     1 M8F         1 TEMP              0 ****  ****    0 ROOT
