@<TRIPOS>MOLECULE
M8G
   46    48     1     0     0
SMALL
bcc


@<TRIPOS>ATOM
      1 C01          4.6740     1.0860    -3.0030 ca         1 M8G      -0.120000
      2 C03          5.8850     0.5580    -2.5760 ca         1 M8G      -0.130000
      3 C05          5.9590    -0.1030    -1.3560 ca         1 M8G      -0.120000
      4 C07          4.8290    -0.2360    -0.5610 ca         1 M8G      -0.133500
      5 C09          3.6270     0.3010    -1.0000 ca         1 M8G       0.094100
      6 C10          3.5380     0.9640    -2.2130 ca         1 M8G      -0.133500
      7 C13          2.3290     0.8600     0.8860 ca         1 M8G       0.188100
      8 C14          1.3090     0.4530     1.7510 ca         1 M8G      -0.189600
      9 C15          1.0490     1.2010     2.8950 ca         1 M8G      -0.076000
     10 C17          1.8020     2.3250     3.1980 ca         1 M8G      -0.168000
     11 C19          2.8150     2.7130     2.3350 ca         1 M8G      -0.074000
     12 C21          3.0790     1.9930     1.1780 ca         1 M8G      -0.207000
     13 O12          2.4880     0.1370    -0.2490 os         1 M8G      -0.237200
     14 C23          0.5500    -0.8070     1.4930 c          1 M8G       0.698700
     15 N24         -0.7990    -0.6570     1.5460 ns         1 M8G      -0.502100
     16 O26          1.0970    -1.8710     1.2790 o          1 M8G      -0.556100
     17 C27         -1.7120    -1.7200     1.4080 ca         1 M8G       0.087600
     18 C28         -1.6200    -2.8230     2.2520 ca         1 M8G      -0.128000
     19 C30         -2.5280    -3.8620     2.1440 ca         1 M8G      -0.099000
     20 C32         -3.5450    -3.8000     1.1980 ca         1 M8G      -0.143000
     21 C34         -3.6420    -2.7030     0.3640 ca         1 M8G      -0.096000
     22 C36         -2.7260    -1.6480     0.4420 ca         1 M8G      -0.101800
     23 C37         -2.7940    -0.5090    -0.4710 ce         1 M8G      -0.017200
     24 C39         -3.8720    -0.1270    -1.1620 cf         1 M8G      -0.262200
     25 C41         -3.8020     1.0330    -2.0790 c          1 M8G       0.674300
     26 O42         -2.7990     1.7020    -2.2620 o          1 M8G      -0.575100
     27 N43         -4.9710     1.2540    -2.7170 ns         1 M8G      -0.454400
     28 O45         -5.1350     2.3810    -3.4580 oh         1 M8G      -0.386100
     29 H1           4.6110     1.6010    -3.9520 ha         1 M8G       0.135500
     30 H2           6.7690     0.6600    -3.1920 ha         1 M8G       0.134000
     31 H3           6.8990    -0.5220    -1.0210 ha         1 M8G       0.135500
     32 H4           4.8810    -0.7580     0.3870 ha         1 M8G       0.151000
     33 H5           2.5900     1.3740    -2.5380 ha         1 M8G       0.151000
     34 H6           0.2640     0.8840     3.5700 ha         1 M8G       0.136000
     35 H7           1.5990     2.8890     4.0980 ha         1 M8G       0.138000
     36 H8           3.4070     3.5920     2.5530 ha         1 M8G       0.134000
     37 H9           3.8610     2.3280     0.5080 ha         1 M8G       0.150000
     38 H10         -1.1680     0.2800     1.6200 hn         1 M8G       0.330500
     39 H11         -0.8500    -2.8560     3.0100 ha         1 M8G       0.149000
     40 H12         -2.4450    -4.7160     2.8020 ha         1 M8G       0.136000
     41 H13         -4.2570    -4.6100     1.1080 ha         1 M8G       0.135000
     42 H14         -4.4230    -2.6780    -0.3850 ha         1 M8G       0.131000
     43 H15         -1.8850     0.0690    -0.5980 ha         1 M8G       0.153000
     44 H16         -4.8200    -0.6450    -1.0650 ha         1 M8G       0.129000
     45 H17         -5.8290     0.7960    -2.4440 hn         1 M8G       0.333500
     46 H18         -4.9930     2.1230    -4.3780 ho         1 M8G       0.406000
@<TRIPOS>BOND
     1     1     2 ar  
     2     1     6 ar  
     3     1    29 1   
     4     2     3 ar  
     5     2    30 1   
     6     3     4 ar  
     7     3    31 1   
     8     4     5 ar  
     9     4    32 1   
    10     5     6 ar  
    11     5    13 1   
    12     6    33 1   
    13     7     8 ar  
    14     7    12 ar  
    15     7    13 1   
    16     8     9 ar  
    17     8    14 1   
    18     9    10 ar  
    19     9    34 1   
    20    10    11 ar  
    21    10    35 1   
    22    11    12 ar  
    23    11    36 1   
    24    12    37 1   
    25    14    15 1   
    26    14    16 2   
    27    15    17 1   
    28    15    38 1   
    29    17    18 ar  
    30    17    22 ar  
    31    18    19 ar  
    32    18    39 1   
    33    19    20 ar  
    34    19    40 1   
    35    20    21 ar  
    36    20    41 1   
    37    21    22 ar  
    38    21    42 1   
    39    22    23 1   
    40    23    24 2   
    41    23    43 1   
    42    24    25 1   
    43    24    44 1   
    44    25    26 2   
    45    25    27 1   
    46    27    28 1   
    47    27    45 1   
    48    28    46 1   
@<TRIPOS>SUBSTRUCTURE
     1 M8G         1 TEMP              0 ****  ****    0 ROOT
