@<TRIPOS>MOLECULE
M8G
   46    48     1     0     0
SMALL
No Charge or Current Charge


@<TRIPOS>ATOM
      1 C01          5.0250     0.7900    -2.4680 ca         1 M8G      -0.102000
      2 C03          6.2410     0.0870    -2.4050 ca         1 M8G      -0.112000
      3 C05          6.5500    -0.6840    -1.2710 ca         1 M8G      -0.102000
      4 C07          5.6440    -0.7470    -0.1970 ca         1 M8G      -0.115500
      5 C09          4.4330    -0.0360    -0.2510 ca         1 M8G       0.094100
      6 C10          4.1180     0.7270    -1.3950 ca         1 M8G      -0.115500
      7 C13          2.7080     0.8900     1.1700 ca         1 M8G       0.188100
      8 C14          1.3280     0.6440     1.3970 ca         1 M8G      -0.189600
      9 C15          0.5030     1.7450     1.7500 ca         1 M8G      -0.058000
     10 C17          1.0390     3.0370     1.8750 ca         1 M8G      -0.150000
     11 C19          2.4040     3.2630     1.6570 ca         1 M8G      -0.056000
     12 C21          3.2340     2.1890     1.3090 ca         1 M8G      -0.189000
     13 O12          3.5620    -0.1290     0.8120 os         1 M8G      -0.237200
     14 C23          0.7390    -0.7530     1.2700 c          1 M8G       0.631700
     15 N24         -0.6460    -0.7990     1.1590 ns         1 M8G      -0.176000
     16 O26          1.4300    -1.7650     1.2780 o          1 M8G      -0.556100
     17 C27         -1.5660    -1.8850     1.0940 ca         1 M8G      -0.005000
     18 C28         -1.2170    -3.1840     1.5300 ca         1 M8G      -0.110000
     19 C30         -2.1370    -4.2420     1.4440 ca         1 M8G      -0.081000
     20 C32         -3.4190    -4.0140     0.9280 ca         1 M8G      -0.125000
     21 C34         -3.7840    -2.7280     0.5040 ca         1 M8G      -0.078000
     22 C36         -2.8720    -1.6550     0.5870 ca         1 M8G      -0.101800
     23 C37         -3.3080    -0.3000     0.1340 ce         1 M8G      -0.067200
     24 C39         -4.1790    -0.0010    -0.8740 cf         1 M8G      -0.312200
     25 C41         -4.5650     1.3810    -1.2590 c          1 M8G       0.607300
     26 O42         -4.1190     2.3700    -0.6930 o          1 M8G      -0.575100
     27 N43         -5.4590     1.4620    -2.3170 ns         1 M8G      -0.387400
     28 O45         -6.1230     2.7080    -2.6410 oh         1 M8G      -0.425100
     29 H1           4.7830     1.3810    -3.3500 ha         1 M8G       0.117500
     30 H2           6.9410     0.1360    -3.2370 ha         1 M8G       0.116000
     31 H3           7.4890    -1.2320    -1.2240 ha         1 M8G       0.117500
     32 H4           5.8810    -1.3450     0.6800 ha         1 M8G       0.133000
     33 H5           3.1760     1.2650    -1.4570 ha         1 M8G       0.133000
     34 H6          -0.5580     1.6170     1.9520 ha         1 M8G       0.118000
     35 H7           0.3920     3.8670     2.1510 ha         1 M8G       0.120000
     36 H8           2.8160     4.2640     1.7600 ha         1 M8G       0.116000
     37 H9           4.2940     2.3650     1.1440 ha         1 M8G       0.132000
     38 H10         -1.0810     0.1100     1.1070 hn         1 M8G       0.164000
     39 H11         -0.2390    -3.3930     1.9520 ha         1 M8G       0.131000
     40 H12         -1.8550    -5.2360     1.7830 ha         1 M8G       0.118000
     41 H13         -4.1330    -4.8320     0.8630 ha         1 M8G       0.117000
     42 H14         -4.7890    -2.5640     0.1230 ha         1 M8G       0.113000
     43 H15         -2.8730     0.5340     0.6890 ha         1 M8G       0.203000
     44 H16         -4.6220    -0.8110    -1.4510 ha         1 M8G       0.179000
     45 H17         -5.9080     0.6120    -2.6540 hn         1 M8G       0.333500
     46 H18         -5.9820     2.8000    -3.6130 ho         1 M8G       0.445000
@<TRIPOS>BOND
     1     1     2 ar  
     2     1     6 ar  
     3     1    29 1   
     4     2     3 ar  
     5     2    30 1   
     6     3     4 ar  
     7     3    31 1   
     8     4     5 ar  
     9     4    32 1   
    10     5     6 ar  
    11     5    13 1   
    12     6    33 1   
    13     7     8 ar  
    14     7    12 ar  
    15     7    13 1   
    16     8     9 ar  
    17     8    14 1   
    18     9    10 ar  
    19     9    34 1   
    20    10    11 ar  
    21    10    35 1   
    22    11    12 ar  
    23    11    36 1   
    24    12    37 1   
    25    14    15 1   
    26    14    16 2   
    27    15    17 1   
    28    15    38 1   
    29    17    18 ar  
    30    17    22 ar  
    31    18    19 ar  
    32    18    39 1   
    33    19    20 ar  
    34    19    40 1   
    35    20    21 ar  
    36    20    41 1   
    37    21    22 ar  
    38    21    42 1   
    39    22    23 1   
    40    23    24 2   
    41    23    43 1   
    42    24    25 1   
    43    24    44 1   
    44    25    26 2   
    45    25    27 1   
    46    27    28 1   
    47    27    45 1   
    48    28    46 1   
@<TRIPOS>SUBSTRUCTURE
     1 M8G         1 TEMP              0 ****  ****    0 ROOT
