@<TRIPOS>MOLECULE
M8I
   42    44     1     0     0
SMALL
No Charge or Current Charge


@<TRIPOS>ATOM
      1 C10          7.2650     6.5070    14.6240 c          1 M8I       0.719000
      2 C15          3.4980     5.5420    18.4650 ca         1 M8I      -0.112500
      3 C16          2.1500     5.3750    18.1090 ca         1 M8I      -0.065500
      4 C17          1.7020     7.6860    18.7150 ca         1 M8I      -0.065500
      5 C18          3.8590     6.7050    22.1210 ca         1 M8I      -0.083000
      6 C19          5.3270     8.5390    22.7480 ca         1 M8I      -0.083000
      7 C21          7.5060     6.8690    16.0980 c3         1 M8I      -0.208400
      8 C22          3.5190     7.8690    24.2280 ca         1 M8I       0.151000
      9 C24          3.1420     6.8690    23.3200 ca         1 M8I      -0.153500
     10 C25          4.6100     8.7040    23.9470 ca         1 M8I      -0.153500
     11 N1           5.2960     6.9460    19.3120 na         1 M8I       0.096200
     12 C2           5.7080     7.3800    20.5710 cc         1 M8I      -0.165000
     13 C3           7.0610     7.5640    20.4720 cd         1 M8I      -0.145000
     14 C4           6.3540     6.9070    18.3970 cc         1 M8I      -0.086300
     15 C5           7.4520     7.2780    19.1400 cd         1 M8I      -0.198000
     16 C7           3.9580     6.7810    18.9470 ca         1 M8I       0.031800
     17 C8           4.9560     7.5420    21.8210 ca         1 M8I       0.002000
     18 C9           1.2320     6.4430    18.2280 ca         1 M8I      -0.161600
     19 O11         -0.6360     5.1640    17.4180 o          1 M8I      -0.611100
     20 C12          6.2390     6.5530    16.9300 c3         1 M8I      -0.010100
     21 O13          7.5190     5.3680    14.2620 o          1 M8I      -0.737000
     22 C14          3.0520     7.8500    19.0700 ca         1 M8I      -0.112500
     23 N20         -1.0730     7.2670    17.9590 nt         1 M8I      -0.606000
     24 O23          6.7840     7.3580    13.8930 o          1 M8I      -0.737000
     25 H32          4.1860     4.7040    18.3760 ha         1 M8I       0.135000
     26 H33          1.8190     4.4060    17.7400 ha         1 M8I       0.122500
     27 H34          1.0350     8.5370    18.8260 ha         1 M8I       0.122500
     28 H35          3.5660     5.9150    21.4350 ha         1 M8I       0.123500
     29 H36          6.1650     9.1990    22.5350 ha         1 M8I       0.123500
     30 H40          8.3060     6.2470    16.5180 hc         1 M8I       0.024200
     31 H39          7.6760     7.9470    16.2060 hc         1 M8I       0.024200
     32 H42          2.3000     6.2210    23.5460 ha         1 M8I       0.124500
     33 H43          4.8970     9.4770    24.6540 ha         1 M8I       0.124500
     34 H27          7.7260     7.8730    21.2730 ha         1 M8I       0.120000
     35 H28          8.4670     7.3530    18.7620 ha         1 M8I       0.143000
     36 H30          6.0120     5.4840    16.8340 hc         1 M8I       0.059200
     37 H29          5.3890     7.0910    16.4940 hc         1 M8I       0.059200
     38 H31          3.3970     8.8110    19.4440 ha         1 M8I       0.135000
     39 H38         -2.0390     7.1370    17.7010 hn         1 M8I       0.310500
     40 H37         -0.7490     8.1570    18.3020 hn         1 M8I       0.310500
     41 C6          -0.2160     6.2300    17.8370 c          1 M8I       0.621700
     42 F26          2.8300     8.0260    25.3790 f          1 M8I      -0.191000
@<TRIPOS>BOND
     1     1     7 1   
     2     1    21 1   
     3     1    24 1   
     4     2     3 ar  
     5     2    16 ar  
     6     2    25 1   
     7     3    18 ar  
     8     3    26 1   
     9     4    18 ar  
    10     4    22 ar  
    11     4    27 1   
    12     5     9 ar  
    13     5    17 ar  
    14     5    28 1   
    15     6    10 ar  
    16     6    17 ar  
    17     6    29 1   
    18     7    20 1   
    19     7    30 1   
    20     7    31 1   
    21     8     9 ar  
    22     8    10 ar  
    23     8    42 1   
    24     9    32 1   
    25    10    33 1   
    26    11    12 1   
    27    11    14 1   
    28    11    16 1   
    29    12    13 2   
    30    12    17 1   
    31    13    15 1   
    32    13    34 1   
    33    14    15 2   
    34    14    20 1   
    35    15    35 1   
    36    16    22 ar  
    37    18    41 1   
    38    19    41 2   
    39    20    36 1   
    40    20    37 1   
    41    22    38 1   
    42    23    39 1   
    43    23    40 1   
    44    23    41 1   
@<TRIPOS>SUBSTRUCTURE
     1 M8I         1 TEMP              0 ****  ****    0 ROOT
