@<TRIPOS>MOLECULE
M8I
   42    44     1     0     0
SMALL
abcg2


@<TRIPOS>ATOM
      1 C10          7.2020     6.3950    14.6580 c          1 M8I       0.719000
      2 C15          3.4880     5.6020    18.5590 ca         1 M8I      -0.112500
      3 C16          2.1520     5.4330    18.2400 ca         1 M8I      -0.065500
      4 C17          1.7140     7.7170    18.8290 ca         1 M8I      -0.065500
      5 C18          4.0230     6.5390    22.1110 ca         1 M8I      -0.083000
      6 C19          5.1650     8.5710    22.6710 ca         1 M8I      -0.083000
      7 C21          7.3400     6.8830    16.1170 c3         1 M8I      -0.208400
      8 C22          3.5390     7.6650    24.1540 ca         1 M8I       0.151000
      9 C24          3.3050     6.6090    23.2940 ca         1 M8I      -0.153500
     10 C25          4.4630     8.6500    23.8640 ca         1 M8I      -0.153500
     11 N1           5.3030     7.0200    19.3360 na         1 M8I       0.096200
     12 C2           5.7770     7.4430    20.5630 cc         1 M8I      -0.165000
     13 C3           7.1170     7.6960    20.4140 cd         1 M8I      -0.145000
     14 C4           6.3280     7.0110    18.4150 cc         1 M8I      -0.086300
     15 C5           7.4620     7.4250    19.0680 cd         1 M8I      -0.198000
     16 C7           3.9410     6.8360    19.0100 ca         1 M8I       0.031800
     17 C8           4.9650     7.5160    21.7770 ca         1 M8I       0.002000
     18 C9           1.2530     6.4890    18.3600 ca         1 M8I      -0.161600
     19 O11         -0.6400     5.1020    18.0420 o          1 M8I      -0.611100
     20 C12          6.1130     6.6440    16.9830 c3         1 M8I      -0.010100
     21 O13          6.3230     5.5450    14.4160 o          1 M8I      -0.737000
     22 C14          3.0500     7.8930    19.1490 ca         1 M8I      -0.112500
     23 N20         -0.9170     7.3100    17.6930 nt         1 M8I      -0.606000
     24 O23          8.0160     6.8790    13.8450 o          1 M8I      -0.737000
     25 H32          4.1770     4.7720    18.4730 ha         1 M8I       0.135000
     26 H33          1.8080     4.4680    17.8950 ha         1 M8I       0.122500
     27 H34          1.0390     8.5520    18.9680 ha         1 M8I       0.122500
     28 H35          3.8600     5.6930    21.4570 ha         1 M8I       0.123500
     29 H36          5.8770     9.3490    22.4280 ha         1 M8I       0.123500
     30 H40          8.2030     6.3670    16.5530 hc         1 M8I       0.024200
     31 H39          7.6050     7.9440    16.1170 hc         1 M8I       0.024200
     32 H42          2.5820     5.8430    23.5470 ha         1 M8I       0.124500
     33 H43          4.6270     9.4700    24.5500 ha         1 M8I       0.124500
     34 H27          7.7850     8.0010    21.2050 ha         1 M8I       0.120000
     35 H28          8.4400     7.5250    18.6250 ha         1 M8I       0.143000
     36 H30          5.8260     5.5930    16.9000 hc         1 M8I       0.059200
     37 H29          5.2650     7.2100    16.5840 hc         1 M8I       0.059200
     38 H31          3.4000     8.8510    19.5100 ha         1 M8I       0.135000
     39 H38         -1.8820     7.1880    17.4310 hn         1 M8I       0.310500
     40 H37         -0.5130     8.2140    17.5200 hn         1 M8I       0.310500
     41 C6          -0.1820     6.2350    18.0180 c          1 M8I       0.621700
     42 F26          2.8490     7.7330    25.3040 f          1 M8I      -0.191000
@<TRIPOS>BOND
     1     1     7 1   
     2     1    21 1   
     3     1    24 1   
     4     2     3 ar  
     5     2    16 ar  
     6     2    25 1   
     7     3    18 ar  
     8     3    26 1   
     9     4    18 ar  
    10     4    22 ar  
    11     4    27 1   
    12     5     9 ar  
    13     5    17 ar  
    14     5    28 1   
    15     6    10 ar  
    16     6    17 ar  
    17     6    29 1   
    18     7    20 1   
    19     7    30 1   
    20     7    31 1   
    21     8     9 ar  
    22     8    10 ar  
    23     8    42 1   
    24     9    32 1   
    25    10    33 1   
    26    11    12 1   
    27    11    14 1   
    28    11    16 1   
    29    12    13 2   
    30    12    17 1   
    31    13    15 1   
    32    13    34 1   
    33    14    15 2   
    34    14    20 1   
    35    15    35 1   
    36    16    22 ar  
    37    18    41 1   
    38    19    41 2   
    39    20    36 1   
    40    20    37 1   
    41    22    38 1   
    42    23    39 1   
    43    23    40 1   
    44    23    41 1   
@<TRIPOS>SUBSTRUCTURE
     1 M8I         1 TEMP              0 ****  ****    0 ROOT
