@<TRIPOS>MOLECULE
M8J
   43    45     1     0     0
SMALL
No Charge or Current Charge


@<TRIPOS>ATOM
      1 C14         -2.4150    -0.4220     0.1020 ca         1 M8J      -0.177500
      2 C22         -2.9780     1.8210    -0.6300 ca         1 M8J      -0.177500
      3 C15         -3.7790    -0.7630     0.1130 ca         1 M8J       0.023500
      4 C21         -4.3430     1.4890    -0.6220 ca         1 M8J       0.023500
      5 C13         -2.0010     0.8760    -0.2680 ca         1 M8J       0.040000
      6 C16         -4.7480     0.1940    -0.2490 ca         1 M8J      -0.311500
      7 C2           3.7450     0.0110    -0.7350 c          1 M8J       0.577000
      8 C24          3.6910     0.9930     1.3770 c          1 M8J       0.623000
      9 C11          0.5430     0.6490     0.0300 c          1 M8J       0.593100
     10 C5           6.1360    -2.4280    -0.6540 c5         1 M8J      -0.081900
     11 C6           7.2100    -1.3280    -0.4290 c5         1 M8J      -0.081900
     12 C4           5.0550    -1.9830     0.3640 c5         1 M8J      -0.080900
     13 C7           6.3650    -0.0260    -0.5380 c5         1 M8J      -0.080900
     14 C3           4.9950    -0.4510     0.0830 c5         1 M8J       0.034400
     15 C10          1.7980     1.5160    -0.1940 c3         1 M8J       0.028000
     16 N8           4.8280     0.2430     1.3740 ns         1 M8J      -0.508900
     17 N9           3.0870     0.8500     0.1490 n          1 M8J      -0.375400
     18 N19         -6.9320     0.2560     1.2570 n8         1 M8J      -1.006100
     19 N12         -0.6420     1.2910    -0.3050 ns         1 M8J      -0.146000
     20 O25          3.2910     1.6660     2.3110 o          1 M8J      -0.547000
     21 O23          0.6080    -0.4960     0.4670 o          1 M8J      -0.554100
     22 S17         -6.4880    -0.2310    -0.2380 sy         1 M8J       1.132600
     23 H1          -1.6990    -1.1870     0.3830 ha         1 M8J       0.134500
     24 H2          -2.6810     2.8260    -0.9210 ha         1 M8J       0.134500
     25 H3          -4.0730    -1.7720     0.4010 ha         1 M8J       0.138500
     26 H4          -5.0800     2.2410    -0.9050 ha         1 M8J       0.138500
     27 H5           5.7570    -2.4260    -1.6840 hc         1 M8J       0.048700
     28 H6           6.5170    -3.4340    -0.4440 hc         1 M8J       0.048700
     29 H7           7.6790    -1.4210     0.5580 hc         1 M8J       0.048700
     30 H8           8.0120    -1.3670    -1.1750 hc         1 M8J       0.048700
     31 H9           4.0930    -2.4840     0.2050 hc         1 M8J       0.068450
     32 H10          5.3720    -2.2070     1.3900 hc         1 M8J       0.068450
     33 H11          6.8370     0.8220    -0.0290 hc         1 M8J       0.068450
     34 H12          6.2450     0.2640    -1.5890 hc         1 M8J       0.068450
     35 H13          1.8110     1.8150    -1.2490 h1         1 M8J       0.088700
     36 H14          1.6820     2.4290     0.4030 h1         1 M8J       0.088700
     37 H15          5.4250     0.2070     2.1920 hn         1 M8J       0.354500
     38 H16         -7.3680    -0.5920     1.6120 hn         1 M8J       0.472500
     39 H17         -6.0400     0.2940     1.7430 hn         1 M8J       0.472500
     40 H18         -0.5180     2.2370    -0.6420 hn         1 M8J       0.155000
     41 O1           3.3860    -0.2670    -1.8720 o          1 M8J      -0.500000
     42 O18         -7.2330     0.6280    -1.1580 o          1 M8J      -0.546000
     43 O20         -6.6500    -1.6820    -0.1940 o          1 M8J      -0.546000
@<TRIPOS>BOND
     1     1     3 ar  
     2     1     5 ar  
     3     1    23 1   
     4     2     4 ar  
     5     2     5 ar  
     6     2    24 1   
     7     3     6 ar  
     8     3    25 1   
     9     4     6 ar  
    10     4    26 1   
    11     5    19 1   
    12     6    22 1   
    13     7    14 1   
    14     7    17 1   
    15     7    41 2   
    16     8    16 1   
    17     8    17 1   
    18     8    20 2   
    19     9    15 1   
    20     9    19 1   
    21     9    21 2   
    22    10    11 1   
    23    10    12 1   
    24    10    27 1   
    25    10    28 1   
    26    11    13 1   
    27    11    29 1   
    28    11    30 1   
    29    12    14 1   
    30    12    31 1   
    31    12    32 1   
    32    13    14 1   
    33    13    33 1   
    34    13    34 1   
    35    14    16 1   
    36    15    17 1   
    37    15    35 1   
    38    15    36 1   
    39    16    37 1   
    40    18    22 1   
    41    18    38 1   
    42    18    39 1   
    43    19    40 1   
    44    22    42 2   
    45    22    43 2   
@<TRIPOS>SUBSTRUCTURE
     1 M8J         1 TEMP              0 ****  ****    0 ROOT
