@<TRIPOS>MOLECULE
M8J
   43    45     1     0     0
SMALL
bcc


@<TRIPOS>ATOM
      1 C14         -2.1970    -0.4280     0.2450 ca         1 M8J      -0.195500
      2 C22         -2.9160     1.7470    -0.5120 ca         1 M8J      -0.195500
      3 C15         -3.5230    -0.8270     0.3050 ca         1 M8J       0.005500
      4 C21         -4.2320     1.3450    -0.4580 ca         1 M8J       0.005500
      5 C13         -1.8820     0.8690    -0.1620 ca         1 M8J       0.132600
      6 C16         -4.5350     0.0520    -0.0410 ca         1 M8J      -0.311500
      7 C2           3.6960     0.2420    -0.9280 c          1 M8J       0.719500
      8 C24          3.5060     0.6750     1.3110 c          1 M8J       0.832500
      9 C11          0.5930     0.7310    -0.0370 c          1 M8J       0.660100
     10 C5           6.2730    -2.3980    -0.0250 c5         1 M8J      -0.081900
     11 C6           7.1540    -1.1350    -0.1730 c5         1 M8J      -0.081900
     12 C4           4.8670    -1.9840    -0.4800 c5         1 M8J      -0.080900
     13 C7           6.2210    -0.0310    -0.6920 c5         1 M8J      -0.080900
     14 C3           4.8300    -0.4750    -0.2260 c5         1 M8J       0.034400
     15 C10          1.7970     1.6500    -0.2020 c3         1 M8J       0.028000
     16 N8           4.5620    -0.1380     1.1550 ns         1 M8J      -0.575900
     17 N9           3.0110     0.9340     0.0260 n          1 M8J      -0.509400
     18 N19         -6.8450     0.5650     1.1230 n8         1 M8J      -0.895700
     19 N12         -0.5870     1.3700    -0.2380 ns         1 M8J      -0.472100
     20 O25          3.0330     1.1330     2.3280 o          1 M8J      -0.622500
     21 O23          0.7170    -0.4410     0.2440 o          1 M8J      -0.554100
     22 S17         -6.2180    -0.4700    -0.0010 sy         1 M8J       1.274200
     23 H1          -1.4290    -1.1310     0.5200 ha         1 M8J       0.152500
     24 H2          -2.6830     2.7550    -0.8320 ha         1 M8J       0.152500
     25 H3          -3.7520    -1.8330     0.6290 ha         1 M8J       0.156500
     26 H4          -5.0130     2.0430    -0.7300 ha         1 M8J       0.156500
     27 H5           6.6460    -3.2340    -0.6170 hc         1 M8J       0.048700
     28 H6           6.2560    -2.7350     1.0120 hc         1 M8J       0.048700
     29 H7           7.5860    -0.8530     0.7880 hc         1 M8J       0.048700
     30 H8           7.9880    -1.2920    -0.8570 hc         1 M8J       0.048700
     31 H9           4.7450    -2.1550    -1.5510 hc         1 M8J       0.068450
     32 H10          4.0650    -2.5120     0.0360 hc         1 M8J       0.068450
     33 H11          6.4770     0.9660    -0.3330 hc         1 M8J       0.068450
     34 H12          6.2290    -0.0060    -1.7840 hc         1 M8J       0.068450
     35 H13          1.8100     2.0760    -1.2060 h1         1 M8J       0.088700
     36 H14          1.7270     2.4840     0.4990 h1         1 M8J       0.088700
     37 H15          5.1280    -0.4310     1.9350 hn         1 M8J       0.354500
     38 H16         -7.8590     0.5970     1.0730 hn         1 M8J       0.417300
     39 H17         -6.5470     0.3460     2.0680 hn         1 M8J       0.417300
     40 H18         -0.5240     2.3480    -0.4850 hn         1 M8J       0.321500
     41 O1           3.4420     0.2200    -2.1090 o          1 M8J      -0.575500
     42 O18         -6.8720    -0.1280    -1.2570 o          1 M8J      -0.616800
     43 O20         -6.2450    -1.8630     0.4270 o          1 M8J      -0.616800
@<TRIPOS>BOND
     1     1     3 ar  
     2     1     5 ar  
     3     1    23 1   
     4     2     4 ar  
     5     2     5 ar  
     6     2    24 1   
     7     3     6 ar  
     8     3    25 1   
     9     4     6 ar  
    10     4    26 1   
    11     5    19 1   
    12     6    22 1   
    13     7    14 1   
    14     7    17 1   
    15     7    41 2   
    16     8    16 1   
    17     8    17 1   
    18     8    20 2   
    19     9    15 1   
    20     9    19 1   
    21     9    21 2   
    22    10    11 1   
    23    10    12 1   
    24    10    27 1   
    25    10    28 1   
    26    11    13 1   
    27    11    29 1   
    28    11    30 1   
    29    12    14 1   
    30    12    31 1   
    31    12    32 1   
    32    13    14 1   
    33    13    33 1   
    34    13    34 1   
    35    14    16 1   
    36    15    17 1   
    37    15    35 1   
    38    15    36 1   
    39    16    37 1   
    40    18    22 1   
    41    18    38 1   
    42    18    39 1   
    43    19    40 1   
    44    22    42 2   
    45    22    43 2   
@<TRIPOS>SUBSTRUCTURE
     1 M8J         1 TEMP              0 ****  ****    0 ROOT
