@<TRIPOS>MOLECULE
M8K
   48    51     1     0     0
SMALL
abcg2


@<TRIPOS>ATOM
      1 N1           2.2960    -0.0300     0.0520 ns         1 M8K      -0.148000
      2 C2           6.3140     1.3430    -0.0740 ca         1 M8K      -0.082000
      3 N3          -3.1570    -0.6190     0.3170 na         1 M8K      -0.293600
      4 C4           4.6690    -0.4010     0.1670 ca         1 M8K      -0.133600
      5 N4          -5.7460     0.1830    -0.4070 n3         1 M8K      -0.742600
      6 C5           5.6580    -1.3610    -0.0340 ca         1 M8K      -0.077500
      7 C6           6.9640    -0.9800    -0.2760 ca         1 M8K      -0.082000
      8 O            3.0750    -1.9500     0.9810 o          1 M8K      -0.575100
      9 C7           3.2750    -0.8750     0.4430 c          1 M8K       0.613700
     10 C3           5.0060     0.9500     0.1540 ca         1 M8K      -0.077500
     11 C1           7.2910     0.3750    -0.2950 ca         1 M8K       0.003000
     12 C            8.6400     0.7750    -0.5380 cg         1 M8K       0.318000
     13 N            9.7280     1.0960    -0.7350 n1         1 M8K      -0.441000
     14 C8           0.9100    -0.2500     0.2000 ca         1 M8K      -0.059000
     15 C13          0.0820     0.0890    -0.8590 ca         1 M8K      -0.093000
     16 C12         -1.2910    -0.0740    -0.6980 ca         1 M8K       0.086400
     17 N2          -2.3190     0.1950    -1.5700 nc         1 M8K      -0.587100
     18 C14         -3.4050    -0.1430    -0.9270 cd         1 M8K       0.416800
     19 C11         -1.8020    -0.5850     0.5060 ca         1 M8K      -0.092200
     20 C10         -0.9780    -0.9240     1.5710 ca         1 M8K      -0.095000
     21 C9           0.3830    -0.7450     1.4060 ca         1 M8K      -0.092000
     22 C15         -4.7970    -0.0900    -1.4620 c3         1 M8K       0.145500
     23 C20         -5.6890     1.5740     0.0190 c6         1 M8K       0.166300
     24 C19         -6.5980     1.8200     1.2120 c6         1 M8K      -0.075400
     25 C18         -8.0290     1.4070     0.8940 c6         1 M8K      -0.076400
     26 C17         -8.0550    -0.0310     0.3910 c6         1 M8K      -0.075400
     27 C16         -7.0980    -0.2090    -0.7760 c6         1 M8K       0.166300
     28 H1           2.5530     0.7400    -0.5480 hn         1 M8K       0.155000
     29 H3          -3.8720    -0.8890     0.9760 hn         1 M8K       0.373000
     30 H5           5.4070    -2.4130    -0.0100 ha         1 M8K       0.133000
     31 H6           7.7280    -1.7270    -0.4440 ha         1 M8K       0.131000
     32 H7           4.2640     1.7130     0.3470 ha         1 M8K       0.133000
     33 H8           0.4900     0.4710    -1.7860 ha         1 M8K       0.128000
     34 H10         -1.3750    -1.3040     2.5030 ha         1 M8K       0.122000
     35 H11          1.0430    -0.9770     2.2280 ha         1 M8K       0.134000
     36 H12         -5.0310    -1.0680    -1.8970 h1         1 M8K       0.063200
     37 H13         -4.8290     0.6350    -2.2890 h1         1 M8K       0.063200
     38 H14         -4.6600     1.8260     0.2840 h1         1 M8K       0.035950
     39 H15         -5.9730     2.2500    -0.8070 h1         1 M8K       0.035950
     40 H16         -6.2280     1.2480     2.0680 hc         1 M8K       0.047200
     41 H17         -6.5500     2.8760     1.4890 hc         1 M8K       0.047200
     42 H18         -8.6710     1.5210     1.7710 hc         1 M8K       0.042200
     43 H19         -8.4340     2.0670     0.1190 hc         1 M8K       0.042200
     44 H20         -7.7700    -0.7130     1.1980 hc         1 M8K       0.047200
     45 H21         -9.0620    -0.3130     0.0750 hc         1 M8K       0.047200
     46 H22         -7.4630     0.3760    -1.6380 h1         1 M8K       0.035950
     47 H23         -7.0800    -1.2560    -1.0890 h1         1 M8K       0.035950
     48 H2           6.5730     2.3920    -0.0760 ha         1 M8K       0.131000
@<TRIPOS>BOND
     1     1     9 1   
     2     1    14 1   
     3     1    28 1   
     4     2    10 ar  
     5     2    11 ar  
     6     2    48 1   
     7     3    18 1   
     8     3    19 1   
     9     3    29 1   
    10     4     6 ar  
    11     4     9 1   
    12     4    10 ar  
    13     5    22 1   
    14     5    23 1   
    15     5    27 1   
    16     6     7 ar  
    17     6    30 1   
    18     7    11 ar  
    19     7    31 1   
    20     8     9 2   
    21    10    32 1   
    22    11    12 1   
    23    12    13 3   
    24    14    15 ar  
    25    14    21 ar  
    26    15    16 ar  
    27    15    33 1   
    28    16    17 1   
    29    16    19 ar  
    30    17    18 2   
    31    18    22 1   
    32    19    20 ar  
    33    20    21 ar  
    34    20    34 1   
    35    21    35 1   
    36    22    36 1   
    37    22    37 1   
    38    23    24 1   
    39    23    38 1   
    40    23    39 1   
    41    24    25 1   
    42    24    40 1   
    43    24    41 1   
    44    25    26 1   
    45    25    42 1   
    46    25    43 1   
    47    26    27 1   
    48    26    44 1   
    49    26    45 1   
    50    27    46 1   
    51    27    47 1   
@<TRIPOS>SUBSTRUCTURE
     1 M8K         1 TEMP              0 ****  ****    0 ROOT
