@<TRIPOS>MOLECULE
M8K
   48    51     1     0     0
SMALL
No Charge or Current Charge


@<TRIPOS>ATOM
      1 N1           2.3630    -0.3670     0.0880 ns         1 M8K      -0.148000
      2 C2           6.2290     1.0150    -1.1620 ca         1 M8K      -0.082000
      3 N3          -3.1630    -0.9180     0.2370 na         1 M8K      -0.293600
      4 C4           4.8220    -0.3550     0.3090 ca         1 M8K      -0.133600
      5 N4          -5.8650     0.2950    -0.4270 n3         1 M8K      -0.742600
      6 C5           5.9960    -0.8120     0.9540 ca         1 M8K      -0.077500
      7 C6           7.2650    -0.3640     0.5470 ca         1 M8K      -0.082000
      8 O            3.3770    -1.6610     1.7040 o          1 M8K      -0.575100
      9 C7           3.4670    -0.8620     0.7770 c          1 M8K       0.613700
     10 C3           4.9580     0.5690    -0.7590 ca         1 M8K      -0.077500
     11 C1           7.3870     0.5510    -0.5130 ca         1 M8K       0.003000
     12 C            8.6850     1.0100    -0.9280 cg         1 M8K       0.318000
     13 N            9.7350     1.3890    -1.2710 n1         1 M8K      -0.441000
     14 C8           0.9620    -0.5820     0.2270 ca         1 M8K      -0.059000
     15 C13          0.1140     0.0350    -0.7230 ca         1 M8K      -0.093000
     16 C12         -1.2720    -0.1460    -0.6250 ca         1 M8K       0.086400
     17 N2          -2.2550     0.3710    -1.4520 nc         1 M8K      -0.587100
     18 C14         -3.3830    -0.1170    -0.8910 cd         1 M8K       0.416800
     19 C11         -1.8040    -0.9070     0.3740 ca         1 M8K      -0.092200
     20 C10         -1.0130    -1.5370     1.3410 ca         1 M8K      -0.095000
     21 C9           0.3850    -1.3690     1.2640 ca         1 M8K      -0.092000
     22 C15         -4.7730     0.1720    -1.4450 c3         1 M8K       0.145500
     23 C20         -5.6750     1.4630     0.4840 c6         1 M8K       0.166300
     24 C19         -6.7500     1.4960     1.5970 c6         1 M8K      -0.075400
     25 C18         -8.1740     1.4970     0.9940 c6         1 M8K      -0.076400
     26 C17         -8.3380     0.3100     0.0170 c6         1 M8K      -0.075400
     27 C16         -7.2180     0.3100    -1.0520 c6         1 M8K       0.166300
     28 H1           2.5990     0.2720    -0.6580 hn         1 M8K       0.155000
     29 H3          -3.8710    -1.3570     0.8110 hn         1 M8K       0.373000
     30 H5           5.9300    -1.5210     1.7770 ha         1 M8K       0.133000
     31 H6           8.1520    -0.7310     1.0590 ha         1 M8K       0.131000
     32 H7           4.0910     0.9550    -1.2900 ha         1 M8K       0.133000
     33 H8           0.5250     0.6440    -1.5240 ha         1 M8K       0.128000
     34 H10         -1.4610    -2.1360     2.1310 ha         1 M8K       0.122000
     35 H11          0.9980    -1.8520     2.0170 ha         1 M8K       0.134000
     36 H12         -5.0080    -0.6460    -2.1390 h1         1 M8K       0.063200
     37 H13         -4.7180     1.0880    -2.0480 h1         1 M8K       0.063200
     38 H14         -4.6840     1.4270     0.9590 h1         1 M8K       0.035950
     39 H15         -5.7230     2.4010    -0.0890 h1         1 M8K       0.035950
     40 H16         -6.6250     0.6230     2.2520 hc         1 M8K       0.047200
     41 H17         -6.6080     2.3850     2.2260 hc         1 M8K       0.047200
     42 H18         -8.9250     1.4370     1.7940 hc         1 M8K       0.042200
     43 H19         -8.3510     2.4430     0.4630 hc         1 M8K       0.042200
     44 H20         -8.3120    -0.6360     0.5740 hc         1 M8K       0.047200
     45 H21         -9.3200     0.3600    -0.4730 hc         1 M8K       0.047200
     46 H22         -7.3310     1.1990    -1.6910 h1         1 M8K       0.035950
     47 H23         -7.3490    -0.5710    -1.6970 h1         1 M8K       0.035950
     48 H2           6.3120     1.7240    -1.9840 ha         1 M8K       0.131000
@<TRIPOS>BOND
     1     1     9 1   
     2     1    14 1   
     3     1    28 1   
     4     2    10 ar  
     5     2    11 ar  
     6     2    48 1   
     7     3    18 1   
     8     3    19 1   
     9     3    29 1   
    10     4     6 ar  
    11     4     9 1   
    12     4    10 ar  
    13     5    22 1   
    14     5    23 1   
    15     5    27 1   
    16     6     7 ar  
    17     6    30 1   
    18     7    11 ar  
    19     7    31 1   
    20     8     9 2   
    21    10    32 1   
    22    11    12 1   
    23    12    13 3   
    24    14    15 ar  
    25    14    21 ar  
    26    15    16 ar  
    27    15    33 1   
    28    16    17 1   
    29    16    19 ar  
    30    17    18 2   
    31    18    22 1   
    32    19    20 ar  
    33    20    21 ar  
    34    20    34 1   
    35    21    35 1   
    36    22    36 1   
    37    22    37 1   
    38    23    24 1   
    39    23    38 1   
    40    23    39 1   
    41    24    25 1   
    42    24    40 1   
    43    24    41 1   
    44    25    26 1   
    45    25    42 1   
    46    25    43 1   
    47    26    27 1   
    48    26    44 1   
    49    26    45 1   
    50    27    46 1   
    51    27    47 1   
@<TRIPOS>SUBSTRUCTURE
     1 M8K         1 TEMP              0 ****  ****    0 ROOT
