@<TRIPOS>MOLECULE
M8M
   48    50     1     0     0
SMALL
bcc


@<TRIPOS>ATOM
      1 N1          -2.8860     3.9790     1.0270 n8         1 M8M      -0.647300
      2 O2          -3.3140     2.9910     0.1180 os         1 M8M      -0.251100
      3 C4          -4.0130     1.9820     0.8100 c3         1 M8M       0.148400
      4 C5          -4.5060     0.9640    -0.1980 c3         1 M8M       0.152800
      5 N2          -3.4610     0.1430    -0.7940 n3         1 M8M      -0.688600
      6 C6          -3.8890    -0.3890    -2.0740 c3         1 M8M       0.146100
      7 C14         -3.0640    -0.9070     0.1220 c3         1 M8M       0.152800
      8 C13         -1.9380    -1.8000    -0.3760 c5         1 M8M       0.145100
      9 O4          -0.8110    -1.0300    -0.8100 os         1 M8M      -0.386600
     10 C1           0.3290    -1.4040    -0.0920 c5         1 M8M       0.264800
     11 N5           1.2280    -0.2860     0.0250 na         1 M8M      -0.255000
     12 C11          2.5570    -0.3440    -0.2990 ca         1 M8M       0.467800
     13 N4           3.2450    -1.3800    -0.7710 nb         1 M8M      -0.742000
     14 C10          4.5150    -1.0730    -0.9760 ca         1 M8M       0.704900
     15 N3           5.1280     0.0890    -0.7680 nb         1 M8M      -0.828000
     16 C9           4.4190     1.1210    -0.2940 ca         1 M8M       0.775200
     17 N7           5.0310     2.2870    -0.0740 nv         1 M8M      -0.956500
     18 C12          3.0520     0.9190    -0.0370 ca         1 M8M      -0.223200
     19 N6           2.0610     1.7400     0.4310 nc         1 M8M      -0.568100
     20 C7           0.9870     1.0020     0.4620 cd         1 M8M       0.428800
     21 C2          -0.1960    -1.9670     1.2250 c5         1 M8M       0.055100
     22 O1           0.7820    -2.7590     1.8290 oh         1 M8M      -0.568800
     23 C3          -1.4290    -2.7280     0.7280 c5         1 M8M       0.084100
     24 O3          -1.0620    -3.9580     0.1590 oh         1 M8M      -0.584800
     25 C8          -0.3420     1.4960     0.8950 c3         1 M8M      -0.115400
     26 HN1         -1.9230     4.1640     0.7700 hn         1 M8M       0.341300
     27 HN1A        -3.3980     4.8190     0.7690 hn         1 M8M       0.341300
     28 H4          -3.3790     1.5200     1.5770 h1         1 M8M       0.030700
     29 H4A         -4.8860     2.3980     1.3270 h1         1 M8M       0.030700
     30 H5          -5.2750     0.3470     0.2940 h1         1 M8M       0.042200
     31 H5A         -5.0220     1.5060    -0.9940 h1         1 M8M       0.042200
     32 H6          -4.2450     0.4230    -2.7070 h1         1 M8M       0.036033
     33 H6A         -3.0610    -0.8610    -2.6010 h1         1 M8M       0.036033
     34 H6B         -4.7000    -1.1290    -1.9890 h1         1 M8M       0.036033
     35 H9          -2.7720    -0.4560     1.0740 h1         1 M8M       0.032700
     36 H5'A        -3.9120    -1.5800     0.3490 h1         1 M8M       0.032700
     37 H7          -2.2920    -2.4030    -1.2180 h1         1 M8M       0.086700
     38 H1           0.9010    -2.1810    -0.6130 h2         1 M8M       0.115700
     39 H10          5.1430    -1.8680    -1.3640 h5         1 M8M       0.045100
     40 HN7          5.9960     2.4090    -0.3290 hn         1 M8M       0.448800
     41 HN7A         4.5110     3.0970     0.2140 hn         1 M8M       0.448800
     42 H2          -0.5180    -1.1510     1.8810 h1         1 M8M       0.056700
     43 HO2          0.5690    -2.8610     2.7620 ho         1 M8M       0.413000
     44 H3          -2.1780    -2.8580     1.5210 h1         1 M8M       0.052700
     45 HO3         -0.4380    -4.3880     0.7550 ho         1 M8M       0.425000
     46 H8          -0.7090     0.9600     1.7720 hc         1 M8M       0.064367
     47 H8A         -0.2450     2.5430     1.1700 hc         1 M8M       0.064367
     48 H8B         -1.0920     1.3980     0.1120 hc         1 M8M       0.064367
@<TRIPOS>BOND
     1     1     2 1   
     2     1    26 1   
     3     1    27 1   
     4     2     3 1   
     5     3     4 1   
     6     3    28 1   
     7     3    29 1   
     8     4     5 1   
     9     4    30 1   
    10     4    31 1   
    11     5     6 1   
    12     5     7 1   
    13     6    32 1   
    14     6    33 1   
    15     6    34 1   
    16     7     8 1   
    17     7    35 1   
    18     7    36 1   
    19     8     9 1   
    20     8    23 1   
    21     8    37 1   
    22     9    10 1   
    23    10    11 1   
    24    10    21 1   
    25    10    38 1   
    26    11    12 1   
    27    11    20 1   
    28    12    13 ar  
    29    12    18 ar  
    30    13    14 ar  
    31    14    15 ar  
    32    14    39 1   
    33    15    16 ar  
    34    16    17 1   
    35    16    18 ar  
    36    17    40 1   
    37    17    41 1   
    38    18    19 1   
    39    19    20 2   
    40    20    25 1   
    41    21    22 1   
    42    21    23 1   
    43    21    42 1   
    44    22    43 1   
    45    23    24 1   
    46    23    44 1   
    47    24    45 1   
    48    25    46 1   
    49    25    47 1   
    50    25    48 1   
@<TRIPOS>SUBSTRUCTURE
     1 M8M         1 TEMP              0 ****  ****    0 ROOT
