@<TRIPOS>MOLECULE
M8M
   48    50     1     0     0
SMALL
No Charge or Current Charge


@<TRIPOS>ATOM
      1 N1          -3.1780     3.7610     1.8120 n8         1 M8M      -0.757700
      2 O2          -3.3930     2.8960     0.6480 os         1 M8M      -0.274300
      3 C4          -4.3800     1.8810     0.9480 c3         1 M8M       0.171600
      4 C5          -4.6810     1.0550    -0.3360 c3         1 M8M       0.152800
      5 N2          -3.5840     0.1980    -0.8830 n3         1 M8M      -0.688600
      6 C6          -3.9480    -0.3530    -2.2110 c3         1 M8M       0.146100
      7 C14         -3.1150    -0.8440     0.0830 c3         1 M8M       0.152800
      8 C13         -1.9850    -1.8120    -0.3980 c5         1 M8M       0.168300
      9 O4          -0.8360    -1.0520    -0.8770 os         1 M8M      -0.433000
     10 C1           0.3260    -1.4310    -0.1140 c5         1 M8M       0.317300
     11 N5           1.3020    -0.3410    -0.0820 na         1 M8M      -0.284300
     12 C11          2.6620    -0.4370    -0.2310 ca         1 M8M       0.139500
     13 N4           3.4470    -1.5110    -0.4480 nb         1 M8M      -0.216000
     14 C10          4.7740    -1.2650    -0.5530 ca         1 M8M       0.178900
     15 N3           5.3830    -0.0590    -0.4590 nb         1 M8M      -0.302000
     16 C9           4.5760     0.9900    -0.2380 ca         1 M8M       0.446900
     17 N7           5.1860     2.2020    -0.1460 nv         1 M8M      -1.066900
     18 C12          3.1790     0.8300    -0.1190 ca         1 M8M      -0.092600
     19 N6           2.1970     1.7890     0.0990 nc         1 M8M      -0.568100
     20 C7           1.0810     1.0390     0.1130 cd         1 M8M       0.428800
     21 C2          -0.2460    -1.9000     1.2610 c5         1 M8M       0.078300
     22 O1           0.6580    -2.7020     2.0480 oh         1 M8M      -0.691000
     23 C3          -1.4440    -2.7420     0.7460 c5         1 M8M       0.107300
     24 O3          -0.9780    -4.0130     0.2740 oh         1 M8M      -0.707000
     25 C8          -0.2630     1.6760     0.3370 c3         1 M8M      -0.115400
     26 HN1         -2.1650     3.7230     1.9870 hn         1 M8M       0.396500
     27 HN1A        -3.3620     4.7150     1.4710 hn         1 M8M       0.396500
     28 H4          -4.0370     1.2220     1.7550 h1         1 M8M       0.030700
     29 H4A         -5.3160     2.3510     1.2770 h1         1 M8M       0.030700
     30 H5          -5.5540     0.4240    -0.1210 h1         1 M8M       0.042200
     31 H5A         -5.0020     1.7700    -1.1060 h1         1 M8M       0.042200
     32 H6          -4.2830     0.4460    -2.8840 h1         1 M8M       0.036033
     33 H6A         -3.0880    -0.8410    -2.6880 h1         1 M8M       0.036033
     34 H6B         -4.7590    -1.0890    -2.1210 h1         1 M8M       0.036033
     35 H9          -2.7500    -0.3540     0.9940 h1         1 M8M       0.032700
     36 H5'A        -3.9680    -1.4660     0.3830 h1         1 M8M       0.032700
     37 H7          -2.3770    -2.4190    -1.2240 h1         1 M8M       0.086700
     38 H1           0.8210    -2.2750    -0.6120 h2         1 M8M       0.115700
     39 H10          5.4180    -2.1250    -0.7300 h5         1 M8M       0.045100
     40 HN7          6.1240     2.2940    -0.5280 hn         1 M8M       0.504000
     41 HN7A         4.5880     3.0230    -0.1980 hn         1 M8M       0.504000
     42 H2          -0.6030    -1.0400     1.8460 h1         1 M8M       0.056700
     43 HO2          1.3420    -2.0990     2.4260 ho         1 M8M       0.512000
     44 H3          -2.1970    -2.8850     1.5350 h1         1 M8M       0.052700
     45 HO3         -0.2290    -4.2300     0.8840 ho         1 M8M       0.524000
     46 H8          -0.7980     1.1930     1.1600 hc         1 M8M       0.064367
     47 H8A         -0.1630     2.7380     0.5840 hc         1 M8M       0.064367
     48 H8B         -0.8840     1.6040    -0.5630 hc         1 M8M       0.064367
@<TRIPOS>BOND
     1     1     2 1   
     2     1    26 1   
     3     1    27 1   
     4     2     3 1   
     5     3     4 1   
     6     3    28 1   
     7     3    29 1   
     8     4     5 1   
     9     4    30 1   
    10     4    31 1   
    11     5     6 1   
    12     5     7 1   
    13     6    32 1   
    14     6    33 1   
    15     6    34 1   
    16     7     8 1   
    17     7    35 1   
    18     7    36 1   
    19     8     9 1   
    20     8    23 1   
    21     8    37 1   
    22     9    10 1   
    23    10    11 1   
    24    10    21 1   
    25    10    38 1   
    26    11    12 1   
    27    11    20 1   
    28    12    13 ar  
    29    12    18 ar  
    30    13    14 ar  
    31    14    15 ar  
    32    14    39 1   
    33    15    16 ar  
    34    16    17 1   
    35    16    18 ar  
    36    17    40 1   
    37    17    41 1   
    38    18    19 1   
    39    19    20 2   
    40    20    25 1   
    41    21    22 1   
    42    21    23 1   
    43    21    42 1   
    44    22    43 1   
    45    23    24 1   
    46    23    44 1   
    47    24    45 1   
    48    25    46 1   
    49    25    47 1   
    50    25    48 1   
@<TRIPOS>SUBSTRUCTURE
     1 M8M         1 TEMP              0 ****  ****    0 ROOT
