@<TRIPOS>MOLECULE
M8N
   38    38     1     0     0
SMALL
No Charge or Current Charge


@<TRIPOS>ATOM
      1 C1          34.7470    -1.4090    59.8320 ca         1 M8N      -0.108300
      2 C10         37.1770    -0.6500    59.2810 c3         1 M8N      -0.067400
      3 C11         38.0120    -1.0960    60.5170 c3         1 M8N      -0.058700
      4 C12         37.2320    -1.0270    61.8520 c3         1 M8N      -0.087600
      5 C13         39.3190    -0.2760    60.6150 c3         1 M8N      -0.087600
      6 C2          34.1990    -2.5510    60.4450 ca         1 M8N      -0.076000
      7 C3          33.0840    -2.4330    61.2910 ca         1 M8N      -0.176000
      8 C4          32.5010    -1.1770    61.5310 ca         1 M8N       0.291000
      9 C5          33.0310    -0.0260    60.9060 ca         1 M8N      -0.128300
     10 C6          34.1500    -0.1530    60.0570 ca         1 M8N      -0.074000
     11 C7          32.4160     1.3530    61.1350 c3         1 M8N      -0.043800
     12 C8          31.2660    -1.7280    63.6460 c3         1 M8N       0.392000
     13 C9          35.9610    -1.5430    58.9120 c3         1 M8N      -0.020100
     14 N1          31.3940    -1.0720    62.3720 nu         1 M8N      -0.958200
     15 N2          30.0480    -1.1160    64.1760 n7         1 M8N      -0.616900
     16 O1          30.1950     0.3730    64.3280 oh         1 M8N      -0.490300
     17 H1          37.8450    -0.6450    58.4100 hc         1 M8N       0.037700
     18 H2          36.8540     0.3890    59.4120 hc         1 M8N       0.037700
     19 H3          38.3030    -2.1430    60.3620 hc         1 M8N       0.040700
     20 H4          37.8980    -1.2270    62.7010 hc         1 M8N       0.032033
     21 H5          36.7860    -0.0350    61.9950 hc         1 M8N       0.032033
     22 H6          36.4350    -1.7760    61.8870 hc         1 M8N       0.032033
     23 H7          39.9390    -0.6290    61.4480 hc         1 M8N       0.032033
     24 H8          39.9090    -0.3710    59.6960 hc         1 M8N       0.032033
     25 H9          39.1010     0.7870    60.7760 hc         1 M8N       0.032033
     26 H10         34.6380    -3.5310    60.2720 ha         1 M8N       0.108000
     27 H11         32.6730    -3.3240    61.7550 ha         1 M8N       0.109000
     28 H12         34.5560     0.7300    59.5700 ha         1 M8N       0.108000
     29 H13         31.3690     1.3770    60.8110 hc         1 M8N       0.040033
     30 H14         32.4480     1.6270    62.1960 hc         1 M8N       0.040033
     31 H15         32.9480     2.1350    60.5800 hc         1 M8N       0.040033
     32 H16         31.1460    -2.8130    63.5260 h2         1 M8N       0.056700
     33 H17         32.1330    -1.5270    64.2910 h2         1 M8N       0.056700
     34 H18         35.6500    -1.2830    57.8930 hc         1 M8N       0.042700
     35 H19         36.2950    -2.5860    58.8600 hc         1 M8N       0.042700
     36 H20         31.0390    -0.1220    62.4470 hn         1 M8N       0.467000
     37 H21         29.2930    -1.2710    63.4890 hn         1 M8N       0.428000
     38 H22         29.8650     0.5890    65.2360 ho         1 M8N       0.459000
@<TRIPOS>BOND
     1     1     6 ar  
     2     1    10 ar  
     3     1    13 1   
     4     2     3 1   
     5     2    13 1   
     6     2    17 1   
     7     2    18 1   
     8     3     4 1   
     9     3     5 1   
    10     3    19 1   
    11     4    20 1   
    12     4    21 1   
    13     4    22 1   
    14     5    23 1   
    15     5    24 1   
    16     5    25 1   
    17     6     7 ar  
    18     6    26 1   
    19     7     8 ar  
    20     7    27 1   
    21     8     9 ar  
    22     8    14 1   
    23     9    10 ar  
    24     9    11 1   
    25    10    28 1   
    26    11    29 1   
    27    11    30 1   
    28    11    31 1   
    29    12    14 1   
    30    12    15 1   
    31    12    32 1   
    32    12    33 1   
    33    13    34 1   
    34    13    35 1   
    35    14    36 1   
    36    15    16 1   
    37    15    37 1   
    38    16    38 1   
@<TRIPOS>SUBSTRUCTURE
     1 M8N         1 TEMP              0 ****  ****    0 ROOT
