@<TRIPOS>MOLECULE
M8N
   38    38     1     0     0
SMALL
abcg2


@<TRIPOS>ATOM
      1 C1          34.7760    -1.4000    59.9670 ca         1 M8N      -0.108300
      2 C10         37.1730    -0.7210    59.3100 c3         1 M8N      -0.067400
      3 C11         38.1040    -1.1450    60.4480 c3         1 M8N      -0.058700
      4 C12         37.4450    -1.1110    61.8230 c3         1 M8N      -0.087600
      5 C13         39.3500    -0.2640    60.4490 c3         1 M8N      -0.087600
      6 C2          34.2430    -2.4170    60.7440 ca         1 M8N      -0.076000
      7 C3          33.1540    -2.2000    61.5800 ca         1 M8N      -0.176000
      8 C4          32.5430    -0.9470    61.6510 ca         1 M8N       0.291000
      9 C5          33.0600     0.0970    60.8560 ca         1 M8N      -0.128300
     10 C6          34.1550    -0.1520    60.0430 ca         1 M8N      -0.074000
     11 C7          32.4240     1.4560    60.8870 c3         1 M8N      -0.043800
     12 C8          31.0140    -1.6640    63.4390 c3         1 M8N       0.392000
     13 C9          35.9550    -1.6180    59.0550 c3         1 M8N      -0.020100
     14 N1          31.4260    -0.7030    62.4370 nu         1 M8N      -0.958200
     15 N2          29.7660    -1.3280    64.0690 n7         1 M8N      -0.616900
     16 O1          29.8550    -0.0460    64.6510 oh         1 M8N      -0.490300
     17 H1          37.7650    -0.6970    58.3900 hc         1 M8N       0.037700
     18 H2          36.8440     0.3100    59.4780 hc         1 M8N       0.037700
     19 H3          38.4210    -2.1770    60.2470 hc         1 M8N       0.040700
     20 H4          38.1720    -1.3510    62.6030 hc         1 M8N       0.032033
     21 H5          37.0450    -0.1170    62.0380 hc         1 M8N       0.032033
     22 H6          36.6220    -1.8180    61.9110 hc         1 M8N       0.032033
     23 H7          40.0680    -0.5900    61.2040 hc         1 M8N       0.032033
     24 H8          39.8580    -0.2800    59.4820 hc         1 M8N       0.032033
     25 H9          39.0920     0.7750    60.6680 hc         1 M8N       0.032033
     26 H10         34.6920    -3.4040    60.7180 ha         1 M8N       0.108000
     27 H11         32.7940    -3.0250    62.1810 ha         1 M8N       0.109000
     28 H12         34.5340     0.6650    59.4380 ha         1 M8N       0.108000
     29 H13         31.3580     1.4080    60.6520 hc         1 M8N       0.040033
     30 H14         32.5100     1.9280    61.8700 hc         1 M8N       0.040033
     31 H15         32.8950     2.1250    60.1690 hc         1 M8N       0.040033
     32 H16         30.8510    -2.6340    62.9650 h2         1 M8N       0.056700
     33 H17         31.7710    -1.8060    64.2210 h2         1 M8N       0.056700
     34 H18         35.6290    -1.4500    58.0240 hc         1 M8N       0.042700
     35 H19         36.2620    -2.6670    59.1010 hc         1 M8N       0.042700
     36 H20         31.3850     0.2430    62.7890 hn         1 M8N       0.467000
     37 H21         29.0500    -1.2390    63.3550 hn         1 M8N       0.428000
     38 H22         29.7930    -0.2130    65.5960 ho         1 M8N       0.459000
@<TRIPOS>BOND
     1     1     6 ar  
     2     1    10 ar  
     3     1    13 1   
     4     2     3 1   
     5     2    13 1   
     6     2    17 1   
     7     2    18 1   
     8     3     4 1   
     9     3     5 1   
    10     3    19 1   
    11     4    20 1   
    12     4    21 1   
    13     4    22 1   
    14     5    23 1   
    15     5    24 1   
    16     5    25 1   
    17     6     7 ar  
    18     6    26 1   
    19     7     8 ar  
    20     7    27 1   
    21     8     9 ar  
    22     8    14 1   
    23     9    10 ar  
    24     9    11 1   
    25    10    28 1   
    26    11    29 1   
    27    11    30 1   
    28    11    31 1   
    29    12    14 1   
    30    12    15 1   
    31    12    32 1   
    32    12    33 1   
    33    13    34 1   
    34    13    35 1   
    35    14    36 1   
    36    15    16 1   
    37    15    37 1   
    38    16    38 1   
@<TRIPOS>SUBSTRUCTURE
     1 M8N         1 TEMP              0 ****  ****    0 ROOT
