@<TRIPOS>MOLECULE
M8O
   20    19     1     0     0
SMALL
No Charge or Current Charge


@<TRIPOS>ATOM
      1 C1           2.5150     0.8830     0.8960 ce         1 M8O      -0.177200
      2 O1          -3.0210    -0.5730     1.4390 o          1 M8O      -0.720500
      3 C2          -2.3220     0.3760     1.1250 c          1 M8O       0.726000
      4 O2           4.3790    -0.1670     1.8190 o          1 M8O      -0.727000
      5 C3           3.5020    -0.2590     0.9720 c          1 M8O       0.725200
      6 O3          -1.4110     0.8070     1.8090 o          1 M8O      -0.720500
      7 C4          -2.5570     1.0220    -0.2210 c3         1 M8O      -0.330400
      8 O4           3.4270    -1.2110     0.2140 o          1 M8O      -0.727000
      9 C5          -1.6700     0.2620    -1.1970 c          1 M8O       0.629100
     10 O5          -2.0030    -0.8350    -1.6280 o          1 M8O      -0.574100
     11 C6          -0.4020     0.9420    -1.7020 c3         1 M8O      -0.262400
     12 O6           1.1840    -0.7930    -1.3380 o          1 M8O      -0.482100
     13 C7           1.4120     1.1270     0.1000 cf         1 M8O      -0.356200
     14 C50          0.7840     0.3060    -0.9910 c          1 M8O       0.607300
     15 H1           2.7400     1.6600     1.6250 ha         1 M8O       0.118000
     16 H4          -3.5910     0.8550    -0.5460 hc         1 M8O       0.029700
     17 H4A         -2.2200     2.0640    -0.1960 hc         1 M8O       0.029700
     18 H6          -0.3080     0.7420    -2.7750 hc         1 M8O       0.043700
     19 H6A         -0.4340     2.0120    -1.4750 hc         1 M8O       0.043700
     20 H7           0.9020     2.0690     0.2950 ha         1 M8O       0.128000
@<TRIPOS>BOND
     1     1     5 1   
     2     1    13 2   
     3     1    15 1   
     4     2     3 1   
     5     3     6 1   
     6     3     7 1   
     7     4     5 1   
     8     5     8 1   
     9     7     9 1   
    10     7    16 1   
    11     7    17 1   
    12     9    10 2   
    13     9    11 1   
    14    11    14 1   
    15    11    18 1   
    16    11    19 1   
    17    12    14 2   
    18    13    14 1   
    19    13    20 1   
@<TRIPOS>SUBSTRUCTURE
     1 M8O         1 TEMP              0 ****  ****    0 ROOT
