@<TRIPOS>MOLECULE
M8O
   20    19     1     0     0
SMALL
abcg2


@<TRIPOS>ATOM
      1 C1           2.9900     1.1020     0.5480 ce         1 M8O      -0.177200
      2 O1          -3.7640     0.5280     1.6960 o          1 M8O      -0.720500
      3 C2          -2.7330     0.3390     1.0290 c          1 M8O       0.726000
      4 O2           3.4560    -0.8150     1.7860 o          1 M8O      -0.727000
      5 C3           3.6000    -0.2740     0.6770 c          1 M8O       0.725200
      6 O3          -1.6030     0.0250     1.4460 o          1 M8O      -0.720500
      7 C4          -2.8680     0.5110    -0.5070 c3         1 M8O      -0.330400
      8 O4           4.2420    -0.6820    -0.3030 o          1 M8O      -0.727000
      9 C5          -1.6050     0.1020    -1.2020 c          1 M8O       0.629100
     10 O5          -1.5150    -0.9120    -1.8570 o          1 M8O      -0.574100
     11 C6          -0.4350     1.0390    -1.0390 c3         1 M8O      -0.262400
     12 O6           1.0750    -0.7500    -0.4780 o          1 M8O      -0.482100
     13 C7           1.7870     1.4290     0.0610 cf         1 M8O      -0.356200
     14 C50          0.8340     0.4370    -0.4670 c          1 M8O       0.607300
     15 H1           3.6190     1.9160     0.9010 ha         1 M8O       0.118000
     16 H4          -3.7140    -0.0750    -0.8740 hc         1 M8O       0.029700
     17 H4A         -3.0830     1.5630    -0.7230 hc         1 M8O       0.029700
     18 H6          -0.1590     1.4080    -2.0370 hc         1 M8O       0.043700
     19 H6A         -0.7040     1.9270    -0.4680 hc         1 M8O       0.043700
     20 H7           1.4840     2.4700     0.0350 ha         1 M8O       0.128000
@<TRIPOS>BOND
     1     1     5 1   
     2     1    13 2   
     3     1    15 1   
     4     2     3 1   
     5     3     6 1   
     6     3     7 1   
     7     4     5 1   
     8     5     8 1   
     9     7     9 1   
    10     7    16 1   
    11     7    17 1   
    12     9    10 2   
    13     9    11 1   
    14    11    14 1   
    15    11    18 1   
    16    11    19 1   
    17    12    14 2   
    18    13    14 1   
    19    13    20 1   
@<TRIPOS>SUBSTRUCTURE
     1 M8O         1 TEMP              0 ****  ****    0 ROOT
