@<TRIPOS>MOLECULE
M8P
   47    50     1     0     0
SMALL
abcg2


@<TRIPOS>ATOM
      1 C11         -4.4020     0.1830    -0.9140 ca         1 M8P      -0.035000
      2 C12         -5.7900     0.1480    -0.6670 ca         1 M8P      -0.059000
      3 C13         -6.7350     0.3030    -1.7100 ca         1 M8P      -0.086000
      4 C14         -8.0750     0.2640    -1.4420 ca         1 M8P      -0.115000
      5 C15         -8.5320     0.0690    -0.1210 ca         1 M8P      -0.096000
      6 C16         -7.6420    -0.0850     0.9070 ca         1 M8P      -0.107000
      7 C17         -6.2500    -0.0480     0.6620 ca         1 M8P      -0.013000
      8 C18         -5.2990    -0.1990     1.6980 ca         1 M8P      -0.121000
      9 C19         -3.9600    -0.1570     1.4340 ca         1 M8P      -0.056000
     10 C10         -3.4960     0.0350     0.1090 ca         1 M8P      -0.136600
     11 C9          -2.0470     0.0780    -0.2000 c          1 M8P       0.723100
     12 O8          -1.6330     0.1960    -1.3430 o          1 M8P      -0.574100
     13 N2          -1.2230    -0.0210     0.8990 ne         1 M8P      -0.736100
     14 C8           0.0440    -0.0170     0.7070 c2         1 M8P       0.578800
     15 S1           0.9160     0.0750    -0.8000 ss         1 M8P      -0.112200
     16 N1           0.8900    -0.0800     1.7700 ns         1 M8P      -0.412400
     17 C7           2.2360    -0.0760     1.5430 c          1 M8P       0.571000
     18 O7           3.0680    -0.0670     2.4120 o          1 M8P      -0.483000
     19 C1           2.5430    -0.0510     0.0370 c5         1 M8P       0.185000
     20 O5           3.2510     1.0850    -0.3290 os         1 M8P      -0.404000
     21 C5           4.6510     1.1340    -0.0390 c6         1 M8P       0.132300
     22 C6           5.1680     2.4070    -0.6720 c3         1 M8P       0.171600
     23 O6           4.5540     3.5080    -0.0500 oh         1 M8P      -0.700000
     24 C4           5.3590    -0.1050    -0.5920 c6         1 M8P       0.111300
     25 O4           6.7110    -0.1310    -0.1970 oh         1 M8P      -0.716000
     26 C3           4.6990    -1.3630    -0.0450 c6         1 M8P       0.131300
     27 O3           5.2320    -2.5300    -0.6210 oh         1 M8P      -0.667000
     28 C2           3.2170    -1.3550    -0.3980 c6         1 M8P       0.174300
     29 O2           2.4950    -2.3800     0.2210 oh         1 M8P      -0.715000
     30 H11         -4.0570     0.3320    -1.9300 ha         1 M8P       0.133000
     31 H13         -6.3810     0.4540    -2.7220 ha         1 M8P       0.116000
     32 H14         -8.7930     0.3840    -2.2430 ha         1 M8P       0.114000
     33 H15         -9.5960     0.0400     0.0750 ha         1 M8P       0.113000
     34 H16         -7.9950    -0.2350     1.9200 ha         1 M8P       0.115000
     35 H18         -5.6460    -0.3500     2.7130 ha         1 M8P       0.116000
     36 H19         -3.2460    -0.2720     2.2360 ha         1 M8P       0.135000
     37 H1           0.5130    -0.1020     2.7100 hn         1 M8P       0.359500
     38 H2           3.1440    -1.4160    -1.4950 h1         1 M8P       0.066700
     39 H5           4.8160     1.1860     1.0430 h1         1 M8P       0.090700
     40 H61C         6.2570     2.4290    -0.5470 h1         1 M8P       0.026200
     41 H62C         4.9680     2.3780    -1.7520 h1         1 M8P       0.026200
     42 H4           5.2650    -0.1100    -1.6870 h1         1 M8P       0.052700
     43 H6           4.9210     4.3100    -0.4320 ho         1 M8P       0.506000
     44 HA           7.2490     0.2730    -0.8830 ho         1 M8P       0.512000
     45 H3           4.8190    -1.3790     1.0460 h1         1 M8P       0.079700
     46 HB           6.1440    -2.6250    -0.3260 ho         1 M8P       0.467000
     47 HC           2.8500    -3.2300    -0.0620 ho         1 M8P       0.536000
@<TRIPOS>BOND
     1     1     2 ar  
     2     1    10 ar  
     3     1    30 1   
     4     2     3 ar  
     5     2     7 ar  
     6     3     4 ar  
     7     3    31 1   
     8     4     5 ar  
     9     4    32 1   
    10     5     6 ar  
    11     5    33 1   
    12     6     7 ar  
    13     6    34 1   
    14     7     8 ar  
    15     8     9 ar  
    16     8    35 1   
    17     9    10 ar  
    18     9    36 1   
    19    10    11 1   
    20    11    12 2   
    21    11    13 1   
    22    13    14 2   
    23    14    15 1   
    24    14    16 1   
    25    15    19 1   
    26    16    17 1   
    27    16    37 1   
    28    17    18 2   
    29    17    19 1   
    30    19    20 1   
    31    19    28 1   
    32    20    21 1   
    33    21    22 1   
    34    21    24 1   
    35    21    39 1   
    36    22    23 1   
    37    22    40 1   
    38    22    41 1   
    39    23    43 1   
    40    24    25 1   
    41    24    26 1   
    42    24    42 1   
    43    25    44 1   
    44    26    27 1   
    45    26    28 1   
    46    26    45 1   
    47    27    46 1   
    48    28    29 1   
    49    28    38 1   
    50    29    47 1   
@<TRIPOS>SUBSTRUCTURE
     1 M8P         1 TEMP              0 ****  ****    0 ROOT
