@<TRIPOS>MOLECULE
M8P
   47    50     1     0     0
SMALL
No Charge or Current Charge


@<TRIPOS>ATOM
      1 C11         -4.1020    -1.1350    -0.6250 ca         1 M8P      -0.035000
      2 C12         -5.0310    -0.0770    -0.6250 ca         1 M8P      -0.059000
      3 C13         -5.9280     0.0820    -1.7000 ca         1 M8P      -0.086000
      4 C14         -6.8530     1.1400    -1.6960 ca         1 M8P      -0.115000
      5 C15         -6.8860     2.0430    -0.6190 ca         1 M8P      -0.096000
      6 C16         -5.9930     1.8880     0.4560 ca         1 M8P      -0.107000
      7 C17         -5.0650     0.8300     0.4550 ca         1 M8P      -0.013000
      8 C18         -4.1710     0.6700     1.5270 ca         1 M8P      -0.121000
      9 C19         -3.2430    -0.3860     1.5260 ca         1 M8P      -0.056000
     10 C10         -3.1960    -1.3020     0.4460 ca         1 M8P      -0.136600
     11 C9          -2.2030    -2.4470     0.4100 c          1 M8P       0.723100
     12 O8          -2.2750    -3.3410    -0.4180 o          1 M8P      -0.574100
     13 N2          -1.2100    -2.4260     1.3770 ne         1 M8P      -0.736100
     14 C8          -0.1090    -1.8100     1.1090 c2         1 M8P       0.578800
     15 S1           0.2080    -0.8590    -0.3620 ss         1 M8P      -0.112200
     16 N1           0.9150    -1.6740     1.9950 ns         1 M8P      -0.412400
     17 C7           2.0360    -0.9660     1.6940 c          1 M8P       0.571000
     18 O7           2.8750    -0.6700     2.5340 o          1 M8P      -0.483000
     19 C1           1.9740    -0.5790     0.1720 c5         1 M8P       0.185000
     20 O5           2.2360     0.8510    -0.0130 os         1 M8P      -0.404000
     21 C5           3.5980     1.3510     0.1330 c6         1 M8P       0.132300
     22 C6           3.5930     2.8730    -0.2270 c3         1 M8P       0.171600
     23 O6           2.6470     3.6330     0.5490 oh         1 M8P      -0.700000
     24 C4           4.6050     0.5230    -0.7270 c6         1 M8P       0.111300
     25 O4           5.9740     0.9170    -0.4900 oh         1 M8P      -0.716000
     26 C3           4.4400    -0.9880    -0.4200 c6         1 M8P       0.131300
     27 O3           5.3450    -1.7590    -1.2310 oh         1 M8P      -0.667000
     28 C2           2.9720    -1.4190    -0.6880 c6         1 M8P       0.174300
     29 O2           2.8400    -2.8330    -0.4530 oh         1 M8P      -0.715000
     30 H11         -4.0840    -1.8260    -1.4650 ha         1 M8P       0.133000
     31 H13         -5.9090    -0.6120    -2.5380 ha         1 M8P       0.116000
     32 H14         -7.5440     1.2600    -2.5270 ha         1 M8P       0.114000
     33 H15         -7.6030     2.8610    -0.6170 ha         1 M8P       0.113000
     34 H16         -6.0250     2.5900     1.2860 ha         1 M8P       0.115000
     35 H18         -4.1920     1.3630     2.3650 ha         1 M8P       0.116000
     36 H19         -2.5700    -0.4860     2.3740 ha         1 M8P       0.135000
     37 H1           0.7940    -2.0190     2.9350 hn         1 M8P       0.359500
     38 H2           2.7530    -1.2050    -1.7450 h1         1 M8P       0.066700
     39 H5           3.8910     1.2680     1.1890 h1         1 M8P       0.090700
     40 H61C         4.6040     3.2710    -0.0690 h1         1 M8P       0.026200
     41 H62C         3.3660     2.9710    -1.2970 h1         1 M8P       0.026200
     42 H4           4.3530     0.6810    -1.7880 h1         1 M8P       0.052700
     43 H6           2.6670     4.5560     0.2030 ho         1 M8P       0.506000
     44 HA           6.1670     1.6990    -1.0600 ho         1 M8P       0.512000
     45 H3           4.6700    -1.1470     0.6450 h1         1 M8P       0.079700
     46 HB           6.1860    -1.2450    -1.2290 ho         1 M8P       0.467000
     47 HC           3.6670    -3.2260    -0.8300 ho         1 M8P       0.536000
@<TRIPOS>BOND
     1     1     2 ar  
     2     1    10 ar  
     3     1    30 1   
     4     2     3 ar  
     5     2     7 ar  
     6     3     4 ar  
     7     3    31 1   
     8     4     5 ar  
     9     4    32 1   
    10     5     6 ar  
    11     5    33 1   
    12     6     7 ar  
    13     6    34 1   
    14     7     8 ar  
    15     8     9 ar  
    16     8    35 1   
    17     9    10 ar  
    18     9    36 1   
    19    10    11 1   
    20    11    12 2   
    21    11    13 1   
    22    13    14 2   
    23    14    15 1   
    24    14    16 1   
    25    15    19 1   
    26    16    17 1   
    27    16    37 1   
    28    17    18 2   
    29    17    19 1   
    30    19    20 1   
    31    19    28 1   
    32    20    21 1   
    33    21    22 1   
    34    21    24 1   
    35    21    39 1   
    36    22    23 1   
    37    22    40 1   
    38    22    41 1   
    39    23    43 1   
    40    24    25 1   
    41    24    26 1   
    42    24    42 1   
    43    25    44 1   
    44    26    27 1   
    45    26    28 1   
    46    26    45 1   
    47    27    46 1   
    48    28    29 1   
    49    28    38 1   
    50    29    47 1   
@<TRIPOS>SUBSTRUCTURE
     1 M8P         1 TEMP              0 ****  ****    0 ROOT
