@<TRIPOS>MOLECULE
M8Q
   35    36     1     0     0
SMALL
No Charge or Current Charge


@<TRIPOS>ATOM
      1 N            3.6260     0.3860    -0.3640 n7         1 M8Q      -0.863300
      2 C            4.7070    -2.0710    -0.1400 c3         1 M8Q      -0.390100
      3 O           -5.4190     0.6740    -2.0460 o          1 M8Q      -0.718000
      4 C1           2.9440     0.4640     0.9320 c3         1 M8Q       0.255100
      5 C10         -4.3530    -1.8430     0.3560 ca         1 M8Q      -0.073000
      6 C11         -4.3200    -0.6840    -0.4520 ca         1 M8Q      -0.138600
      7 C12         -5.4810    -0.3450    -1.3730 c          1 M8Q       0.713600
      8 C13         -3.1790     0.1520    -0.3870 ca         1 M8Q      -0.067000
      9 C14          0.4220     0.2230     0.6920 ca         1 M8Q      -0.106000
     10 C2           1.5550     1.0590     0.7460 ca         1 M8Q      -0.115300
     11 C3           1.3930     2.4510     0.6240 ca         1 M8Q      -0.097000
     12 C4           0.1120     3.0000     0.4510 ca         1 M8Q      -0.119000
     13 C5          -1.0130     2.1600     0.3980 ca         1 M8Q      -0.091000
     14 C6          -0.8820     0.7530     0.5170 cp         1 M8Q       0.007000
     15 C7          -2.0810    -0.1440     0.4610 cp         1 M8Q      -0.094000
     16 C8          -2.1530    -1.3150     1.2540 ca         1 M8Q      -0.123000
     17 C9          -3.2770    -2.1530     1.2020 ca         1 M8Q      -0.151000
     18 O1          -6.4410    -1.1030    -1.4090 o          1 M8Q      -0.718000
     19 O2           5.5760    -0.1930    -1.8180 o          1 M8Q      -0.537000
     20 O3           5.9020     0.1600     0.6760 o          1 M8Q      -0.537000
     21 S            5.1100    -0.3590    -0.4400 s6         1 M8Q       1.193100
     22 H            3.9900    -2.3940    -0.9020 h1         1 M8Q       0.098033
     23 H2           5.6400    -2.6390    -0.2200 h1         1 M8Q       0.098033
     24 H5           2.8460    -0.5280     1.3950 h1         1 M8Q       0.050200
     25 H4           3.5100     1.0950     1.6310 h1         1 M8Q       0.050200
     26 H11         -5.2140    -2.5070     0.3320 ha         1 M8Q       0.129000
     27 H12         -3.1350     1.0390    -1.0150 ha         1 M8Q       0.131000
     28 H13          0.5530    -0.8540     0.7730 ha         1 M8Q       0.107000
     29 H6           2.2600     3.1070     0.6610 ha         1 M8Q       0.112000
     30 H7          -0.0090     4.0770     0.3600 ha         1 M8Q       0.108000
     31 H8          -1.9970     2.6060     0.2780 ha         1 M8Q       0.130000
     32 H9          -1.3380    -1.5700     1.9260 ha         1 M8Q       0.083000
     33 H10         -3.3150    -3.0460     1.8210 ha         1 M8Q       0.087000
     34 H1           4.2890    -2.1560     0.8680 h1         1 M8Q       0.098033
     35 H3           3.0750    -0.2160    -0.9700 hn         1 M8Q       0.487000
@<TRIPOS>BOND
     1     1     4 1   
     2     1    21 1   
     3     1    35 1   
     4     2    21 1   
     5     2    22 1   
     6     2    23 1   
     7     2    34 1   
     8     3     7 1   
     9     4    10 1   
    10     4    24 1   
    11     4    25 1   
    12     5     6 ar  
    13     5    17 ar  
    14     5    26 1   
    15     6     7 1   
    16     6     8 ar  
    17     7    18 1   
    18     8    15 ar  
    19     8    27 1   
    20     9    10 ar  
    21     9    14 ar  
    22     9    28 1   
    23    10    11 ar  
    24    11    12 ar  
    25    11    29 1   
    26    12    13 ar  
    27    12    30 1   
    28    13    14 ar  
    29    13    31 1   
    30    14    15 1   
    31    15    16 ar  
    32    16    17 ar  
    33    16    32 1   
    34    17    33 1   
    35    19    21 2   
    36    20    21 2   
@<TRIPOS>SUBSTRUCTURE
     1 M8Q         1 TEMP              0 ****  ****    0 ROOT
