@<TRIPOS>MOLECULE
M8Q
   35    36     1     0     0
SMALL
abcg2


@<TRIPOS>ATOM
      1 N            3.5860     0.1910    -0.4140 n7         1 M8Q      -0.863300
      2 C            5.5270    -1.7290    -0.0290 c3         1 M8Q      -0.390100
      3 O           -5.4690     0.9200    -1.9590 o          1 M8Q      -0.718000
      4 C1           2.7520    -0.0360     0.7630 c3         1 M8Q       0.255100
      5 C10         -4.6350    -1.6190     0.4940 ca         1 M8Q      -0.073000
      6 C11         -4.5150    -0.5070    -0.3370 ca         1 M8Q      -0.138600
      7 C12         -5.6680    -0.0750    -1.2370 c          1 M8Q       0.713600
      8 C13         -3.3190     0.2020    -0.3340 ca         1 M8Q      -0.067000
      9 C14          0.2480    -0.0350     0.6060 ca         1 M8Q      -0.106000
     10 C2           1.4380     0.6780     0.6020 ca         1 M8Q      -0.115300
     11 C3           1.4040     2.0610     0.4420 ca         1 M8Q      -0.097000
     12 C4           0.1880     2.7090     0.2980 ca         1 M8Q      -0.119000
     13 C5          -0.9990     1.9890     0.3090 ca         1 M8Q      -0.091000
     14 C6          -0.9870     0.6030     0.4640 cp         1 M8Q       0.007000
     15 C7          -2.2450    -0.1720     0.4750 cp         1 M8Q      -0.094000
     16 C8          -2.3890    -1.2910     1.2960 ca         1 M8Q      -0.123000
     17 C9          -3.5770    -2.0070     1.3030 ca         1 M8Q      -0.151000
     18 O1          -6.7100    -0.7540    -1.1690 o          1 M8Q      -0.718000
     19 O2           5.7480     0.3490    -1.6230 o          1 M8Q      -0.537000
     20 O3           5.6660     0.7360     0.8580 o          1 M8Q      -0.537000
     21 S            5.2180    -0.0010    -0.3150 s6         1 M8Q       1.193100
     22 H            5.1440    -2.3050    -0.8680 h1         1 M8Q       0.098033
     23 H2           6.6030    -1.8700     0.0600 h1         1 M8Q       0.098033
     24 H5           2.5790    -1.1010     0.9410 h1         1 M8Q       0.050200
     25 H4           3.2770     0.3590     1.6320 h1         1 M8Q       0.050200
     26 H11         -5.5590    -2.1810     0.5040 ha         1 M8Q       0.129000
     27 H12         -3.2220     1.0530    -0.9960 ha         1 M8Q       0.131000
     28 H13          0.2850    -1.1140     0.7010 ha         1 M8Q       0.107000
     29 H6           2.3250     2.6300     0.4310 ha         1 M8Q       0.112000
     30 H7           0.1600     3.7850     0.1860 ha         1 M8Q       0.108000
     31 H8          -1.9400     2.5150     0.2130 ha         1 M8Q       0.130000
     32 H9          -1.5810    -1.5940     1.9500 ha         1 M8Q       0.083000
     33 H10         -3.6770    -2.8690     1.9500 ha         1 M8Q       0.087000
     34 H1           5.0400    -2.0390     0.8930 h1         1 M8Q       0.098033
     35 H3           3.2060    -0.1960    -1.2720 hn         1 M8Q       0.487000
@<TRIPOS>BOND
     1     1     4 1   
     2     1    21 1   
     3     1    35 1   
     4     2    21 1   
     5     2    22 1   
     6     2    23 1   
     7     2    34 1   
     8     3     7 1   
     9     4    10 1   
    10     4    24 1   
    11     4    25 1   
    12     5     6 ar  
    13     5    17 ar  
    14     5    26 1   
    15     6     7 1   
    16     6     8 ar  
    17     7    18 1   
    18     8    15 ar  
    19     8    27 1   
    20     9    10 ar  
    21     9    14 ar  
    22     9    28 1   
    23    10    11 ar  
    24    11    12 ar  
    25    11    29 1   
    26    12    13 ar  
    27    12    30 1   
    28    13    14 ar  
    29    13    31 1   
    30    14    15 1   
    31    15    16 ar  
    32    16    17 ar  
    33    16    32 1   
    34    17    33 1   
    35    19    21 2   
    36    20    21 2   
@<TRIPOS>SUBSTRUCTURE
     1 M8Q         1 TEMP              0 ****  ****    0 ROOT
