@<TRIPOS>MOLECULE
M8R
   48    51     1     0     0
SMALL
abcg2


@<TRIPOS>ATOM
      1 C10         -7.5640   -34.2390     8.0390 c          1 M8R       0.715000
      2 C17        -12.6500   -32.8420     8.4200 c3         1 M8R       0.203600
      3 C20        -11.1770   -33.7730    11.2170 ca         1 M8R      -0.077500
      4 C21        -11.0750   -33.6800    12.6020 ca         1 M8R      -0.114000
      5 C22        -12.1970   -33.8310    13.4120 ca         1 M8R      -0.124000
      6 C24        -14.2670   -34.5030     9.2920 ca         1 M8R      -0.072800
      7 C26        -13.5430   -34.1880    11.4720 cp         1 M8R      -0.044500
      8 C28        -16.4840   -35.0520     8.5910 ca         1 M8R      -0.114000
      9 C02         -7.9730   -28.8480     5.3440 c          1 M8R       0.708500
     10 C04         -8.7780   -29.3580     4.1820 c6         1 M8R      -0.329700
     11 C05         -8.4470   -30.7630     3.8460 c2         1 M8R       0.467200
     12 C07         -7.4450   -31.0280     5.8720 ce         1 M8R       0.714300
     13 C08         -6.9720   -32.0660     6.8280 c3         1 M8R      -0.108700
     14 C09         -8.0710   -33.0910     7.1150 c3         1 M8R      -0.045300
     15 C14        -10.4630   -32.9490     7.5270 c          1 M8R       0.636100
     16 C18        -12.8050   -34.1490     9.2020 c5         1 M8R      -0.009100
     17 C19        -12.4190   -34.0180    10.6550 ca         1 M8R      -0.072800
     18 C23        -13.4420   -34.0920    12.8540 ca         1 M8R      -0.098500
     19 C25        -14.6940   -34.4880    10.6230 cp         1 M8R      -0.044500
     20 C27        -15.1570   -34.7830     8.2700 ca         1 M8R      -0.077500
     21 C29        -16.9100   -35.0350     9.9160 ca         1 M8R      -0.124000
     22 C30        -16.0180   -34.7530    10.9450 ca         1 M8R      -0.098500
     23 N01         -7.4770   -29.7940     6.2310 nf         1 M8R      -0.701100
     24 N06         -7.8120   -31.5460     4.6220 ne         1 M8R      -0.671000
     25 N13         -9.2330   -32.4130     7.6430 ns         1 M8R      -0.451900
     26 O11         -8.3350   -34.6140     8.9380 o          1 M8R      -0.713500
     27 O12         -6.4400   -34.6920     7.7550 o          1 M8R      -0.713500
     28 O15        -10.7940   -33.7990     6.7280 o          1 M8R      -0.554000
     29 O16        -11.3120   -32.3720     8.3940 os         1 M8R      -0.468100
     30 H1         -13.2230   -32.0540     8.9110 h1         1 M8R       0.052200
     31 H2         -13.0400   -32.9630     7.4070 h1         1 M8R       0.052200
     32 H4         -10.1110   -33.4910    13.0560 ha         1 M8R       0.108500
     33 H5         -12.0960   -33.7550    14.4870 ha         1 M8R       0.099500
     34 H6         -17.1920   -35.2790     7.8040 ha         1 M8R       0.108500
     35 H7          -8.6720   -28.7130     3.3080 hc         1 M8R       0.093700
     36 H8          -9.8460   -29.3170     4.4430 hc         1 M8R       0.093700
     37 H9          -8.7670   -31.1490     2.8810 h4         1 M8R       0.022800
     38 H10         -6.1230   -32.5930     6.3900 hc         1 M8R       0.086200
     39 H11         -6.6360   -31.5850     7.7490 hc         1 M8R       0.086200
     40 H12         -8.3620   -33.5490     6.1670 h1         1 M8R       0.081700
     41 H13        -12.2330   -34.9400     8.7060 hc         1 M8R       0.118700
     42 H14        -14.3100   -34.2240    13.4870 ha         1 M8R       0.105000
     43 H15        -14.8310   -34.7980     7.2370 ha         1 M8R       0.143500
     44 H16        -17.9460   -35.2450    10.1480 ha         1 M8R       0.099500
     45 H17        -16.3570   -34.7430    11.9740 ha         1 M8R       0.105000
     46 H18         -9.0740   -31.8340     8.4560 hn         1 M8R       0.306500
     47 O03         -7.7890   -27.6700     5.5370 o          1 M8R      -0.524100
     48 H3         -10.2920   -33.6750    10.6010 ha         1 M8R       0.143500
@<TRIPOS>BOND
     1     1    14 1   
     2     1    26 1   
     3     1    27 1   
     4     2    16 1   
     5     2    29 1   
     6     2    30 1   
     7     2    31 1   
     8     3     4 ar  
     9     3    17 ar  
    10     3    48 1   
    11     4     5 ar  
    12     4    32 1   
    13     5    18 ar  
    14     5    33 1   
    15     6    16 1   
    16     6    19 ar  
    17     6    20 ar  
    18     7    17 ar  
    19     7    18 ar  
    20     7    19 1   
    21     8    20 ar  
    22     8    21 ar  
    23     8    34 1   
    24     9    10 1   
    25     9    23 1   
    26     9    47 2   
    27    10    11 1   
    28    10    35 1   
    29    10    36 1   
    30    11    24 2   
    31    11    37 1   
    32    12    13 1   
    33    12    23 2   
    34    12    24 1   
    35    13    14 1   
    36    13    38 1   
    37    13    39 1   
    38    14    25 1   
    39    14    40 1   
    40    15    25 1   
    41    15    28 2   
    42    15    29 1   
    43    16    17 1   
    44    16    41 1   
    45    18    42 1   
    46    19    22 ar  
    47    20    43 1   
    48    21    22 ar  
    49    21    44 1   
    50    22    45 1   
    51    25    46 1   
@<TRIPOS>SUBSTRUCTURE
     1 M8R         1 TEMP              0 ****  ****    0 ROOT
