@<TRIPOS>MOLECULE
M8R
   48    51     1     0     0
SMALL
No Charge or Current Charge


@<TRIPOS>ATOM
      1 C10         -6.2720   -33.3880     8.5250 c          1 M8R       0.715000
      2 C17        -12.1080   -32.1610     8.9570 c3         1 M8R       0.203600
      3 C20        -11.1480   -34.2210    11.3910 ca         1 M8R      -0.077500
      4 C21        -11.2230   -34.6960    12.7170 ca         1 M8R      -0.114000
      5 C22        -12.4710   -35.0310    13.2910 ca         1 M8R      -0.124000
      6 C24        -14.1240   -33.7300     9.0420 ca         1 M8R      -0.072800
      7 C26        -13.5830   -34.4210    11.2200 cp         1 M8R      -0.044500
      8 C28        -16.3230   -33.6460     8.0580 ca         1 M8R      -0.114000
      9 C02         -9.4310   -29.7600     4.8100 c          1 M8R       0.708500
     10 C04        -10.1900   -30.9190     4.2220 c6         1 M8R      -0.329700
     11 C05         -9.1460   -31.9390     3.8580 c2         1 M8R       0.467200
     12 C07         -7.9070   -31.2480     5.6510 ce         1 M8R       0.714300
     13 C08         -6.9250   -31.6830     6.7170 c3         1 M8R      -0.108700
     14 C09         -7.4180   -32.8470     7.6200 c3         1 M8R      -0.045300
     15 C14         -9.8920   -32.5900     8.0970 c          1 M8R       0.636100
     16 C18        -12.6020   -33.6090     9.2270 c5         1 M8R      -0.009100
     17 C19        -12.3420   -34.0900    10.6680 ca         1 M8R      -0.072800
     18 C23        -13.6600   -34.8970    12.5450 ca         1 M8R      -0.098500
     19 C25        -14.6510   -34.2040    10.2450 cp         1 M8R      -0.044500
     20 C27        -14.9330   -33.4430     7.9330 ca         1 M8R      -0.077500
     21 C29        -16.8730   -34.1260     9.2700 ca         1 M8R      -0.124000
     22 C30        -16.0400   -34.4090    10.3720 ca         1 M8R      -0.098500
     23 N01         -8.5490   -30.1330     5.8180 nf         1 M8R      -0.701100
     24 N06         -8.0540   -32.0960     4.5490 ne         1 M8R      -0.671000
     25 N13         -8.5790   -32.4490     8.4520 ns         1 M8R      -0.451900
     26 O11         -5.8460   -32.6680     9.4180 o          1 M8R      -0.713500
     27 O12         -5.8870   -34.5340     8.3430 o          1 M8R      -0.713500
     28 O15        -10.2870   -33.0750     7.0500 o          1 M8R      -0.554000
     29 O16        -10.6730   -32.0860     9.0930 os         1 M8R      -0.468100
     30 H1         -12.5870   -31.4950     9.6850 h1         1 M8R       0.052200
     31 H2         -12.4240   -31.8360     7.9560 h1         1 M8R       0.052200
     32 H4         -10.3120   -34.8070    13.3020 ha         1 M8R       0.108500
     33 H5         -12.5150   -35.3970    14.3140 ha         1 M8R       0.099500
     34 H6         -16.9770   -33.4330     7.2150 ha         1 M8R       0.108500
     35 H7         -10.7870   -30.6090     3.3560 hc         1 M8R       0.093700
     36 H8         -10.8060   -31.3770     5.0040 hc         1 M8R       0.093700
     37 H9          -9.3230   -32.5670     2.9880 h4         1 M8R       0.022800
     38 H10         -5.9970   -31.9950     6.2250 hc         1 M8R       0.086200
     39 H11         -6.6530   -30.8300     7.3490 hc         1 M8R       0.086200
     40 H12         -7.7240   -33.6820     6.9750 h1         1 M8R       0.081700
     41 H13        -12.0970   -34.2660     8.5110 hc         1 M8R       0.118700
     42 H14        -14.6200   -35.1580    12.9840 ha         1 M8R       0.105000
     43 H15        -14.5030   -33.0760     7.0040 ha         1 M8R       0.143500
     44 H16        -17.9470   -34.2780     9.3520 ha         1 M8R       0.099500
     45 H17        -16.4620   -34.7780    11.3030 ha         1 M8R       0.105000
     46 H18         -8.4070   -32.0330     9.3590 hn         1 M8R       0.306500
     47 O03         -9.3860   -28.6550     4.2990 o          1 M8R      -0.524100
     48 H3         -10.1900   -33.9650    10.9450 ha         1 M8R       0.143500
@<TRIPOS>BOND
     1     1    14 1   
     2     1    26 1   
     3     1    27 1   
     4     2    16 1   
     5     2    29 1   
     6     2    30 1   
     7     2    31 1   
     8     3     4 ar  
     9     3    17 ar  
    10     3    48 1   
    11     4     5 ar  
    12     4    32 1   
    13     5    18 ar  
    14     5    33 1   
    15     6    16 1   
    16     6    19 ar  
    17     6    20 ar  
    18     7    17 ar  
    19     7    18 ar  
    20     7    19 1   
    21     8    20 ar  
    22     8    21 ar  
    23     8    34 1   
    24     9    10 1   
    25     9    23 1   
    26     9    47 2   
    27    10    11 1   
    28    10    35 1   
    29    10    36 1   
    30    11    24 2   
    31    11    37 1   
    32    12    13 1   
    33    12    23 2   
    34    12    24 1   
    35    13    14 1   
    36    13    38 1   
    37    13    39 1   
    38    14    25 1   
    39    14    40 1   
    40    15    25 1   
    41    15    28 2   
    42    15    29 1   
    43    16    17 1   
    44    16    41 1   
    45    18    42 1   
    46    19    22 ar  
    47    20    43 1   
    48    21    22 ar  
    49    21    44 1   
    50    22    45 1   
    51    25    46 1   
@<TRIPOS>SUBSTRUCTURE
     1 M8R         1 TEMP              0 ****  ****    0 ROOT
