@<TRIPOS>MOLECULE
M8S
   49    51     1     0     0
SMALL
abcg2


@<TRIPOS>ATOM
      1 C16         -2.5520    -0.2790    -0.0230 ca         1 M8S      -0.176500
      2 C24         -3.4580     1.9520    -0.1730 ca         1 M8S      -0.176500
      3 C17         -3.8380    -0.7850    -0.0400 ca         1 M8S       0.021000
      4 C23         -4.7410     1.4420    -0.1960 ca         1 M8S       0.021000
      5 C15         -2.3500     1.1040    -0.0860 ca         1 M8S       0.040000
      6 C18         -4.9280     0.0690    -0.1240 ca         1 M8S      -0.305500
      7 C2           3.2370     0.9580    -0.8670 c          1 M8S       0.563000
      8 C26          2.9790     1.0240     1.4020 c          1 M8S       0.622000
      9 C13          0.1300     1.1370    -0.0050 c          1 M8S       0.592100
     10 C6           6.0880    -2.6790     0.1450 c3         1 M8S      -0.073900
     11 C7           6.9410    -1.4400     0.4010 c3         1 M8S      -0.073900
     12 C5           4.5810    -2.4710     0.1950 c3         1 M8S      -0.070400
     13 C8           6.8580    -0.4140    -0.7290 c3         1 M8S      -0.070400
     14 C4           4.0090    -1.3790    -0.7050 c3         1 M8S      -0.073400
     15 C9           5.7070     0.5910    -0.6800 c3         1 M8S      -0.073400
     16 C3           4.3210     0.0680    -0.2650 c5         1 M8S       0.057400
     17 C12          1.2660     2.1540     0.0130 c3         1 M8S       0.028000
     18 N10          4.0490     0.2550     1.1480 ns         1 M8S      -0.513900
     19 N11          2.5180     1.4840     0.1640 n          1 M8S      -0.373400
     20 N21         -6.7850    -0.9270     1.4710 n8         1 M8S      -1.001100
     21 N14         -1.0980     1.7100    -0.0640 ns         1 M8S      -0.144000
     22 O27          2.4770     1.3090     2.4660 o          1 M8S      -0.549000
     23 O25          0.3450    -0.0560     0.0260 o          1 M8S      -0.560100
     24 S19         -6.5550    -0.6120    -0.1360 sy         1 M8S       1.132600
     25 H1          -1.7240    -0.9630     0.0380 ha         1 M8S       0.134500
     26 H2          -3.3160     3.0240    -0.2260 ha         1 M8S       0.134500
     27 H3          -3.9750    -1.8570     0.0100 ha         1 M8S       0.137500
     28 H4          -5.5800     2.1200    -0.2670 ha         1 M8S       0.137500
     29 H5           6.3610    -3.0800    -0.8360 hc         1 M8S       0.040200
     30 H6           6.3480    -3.4540     0.8720 hc         1 M8S       0.040200
     31 H7           6.6930    -0.9850     1.3660 hc         1 M8S       0.040200
     32 H8           7.9800    -1.7640     0.4950 hc         1 M8S       0.040200
     33 H9           4.0970    -3.4090    -0.0910 hc         1 M8S       0.043700
     34 H10          4.2650    -2.2930     1.2270 hc         1 M8S       0.043700
     35 H11          7.7790     0.1720    -0.7570 hc         1 M8S       0.043700
     36 H12          6.8280    -0.9550    -1.6790 hc         1 M8S       0.043700
     37 H13          4.3450    -1.5140    -1.7370 hc         1 M8S       0.061950
     38 H14          2.9220    -1.5020    -0.7160 hc         1 M8S       0.061950
     39 H15          5.9600     1.4100    -0.0020 hc         1 M8S       0.061950
     40 H16          5.6230     1.0360    -1.6740 hc         1 M8S       0.061950
     41 H17          1.2700     2.7250    -0.9170 h1         1 M8S       0.089700
     42 H18          1.1250     2.8670     0.8270 h1         1 M8S       0.089700
     43 H19          4.5730    -0.1770     1.8900 hn         1 M8S       0.353500
     44 H20         -6.9660    -0.0870     2.0100 hn         1 M8S       0.471500
     45 H21         -7.5330    -1.6010     1.6130 hn         1 M8S       0.471500
     46 H22         -1.1150     2.7210    -0.0890 hn         1 M8S       0.155000
     47 O1           3.0300     1.1460    -2.0420 o          1 M8S      -0.501000
     48 O20         -7.4650     0.4070    -0.6420 o          1 M8S      -0.547000
     49 O22         -6.5340    -1.9110    -0.7930 o          1 M8S      -0.547000
@<TRIPOS>BOND
     1     1     3 ar  
     2     1     5 ar  
     3     1    25 1   
     4     2     4 ar  
     5     2     5 ar  
     6     2    26 1   
     7     3     6 ar  
     8     3    27 1   
     9     4     6 ar  
    10     4    28 1   
    11     5    21 1   
    12     6    24 1   
    13     7    16 1   
    14     7    19 1   
    15     7    47 2   
    16     8    18 1   
    17     8    19 1   
    18     8    22 2   
    19     9    17 1   
    20     9    21 1   
    21     9    23 2   
    22    10    11 1   
    23    10    12 1   
    24    10    29 1   
    25    10    30 1   
    26    11    13 1   
    27    11    31 1   
    28    11    32 1   
    29    12    14 1   
    30    12    33 1   
    31    12    34 1   
    32    13    15 1   
    33    13    35 1   
    34    13    36 1   
    35    14    16 1   
    36    14    37 1   
    37    14    38 1   
    38    15    16 1   
    39    15    39 1   
    40    15    40 1   
    41    16    18 1   
    42    17    19 1   
    43    17    41 1   
    44    17    42 1   
    45    18    43 1   
    46    20    24 1   
    47    20    44 1   
    48    20    45 1   
    49    21    46 1   
    50    24    48 2   
    51    24    49 2   
@<TRIPOS>SUBSTRUCTURE
     1 M8S         1 TEMP              0 ****  ****    0 ROOT
