@<TRIPOS>MOLECULE
M8S
   49    51     1     0     0
SMALL
No Charge or Current Charge


@<TRIPOS>ATOM
      1 C16         -3.0020    -0.4090    -0.0780 ca         1 M8S      -0.176500
      2 C24         -3.6590     1.9260    -0.0570 ca         1 M8S      -0.176500
      3 C17         -4.3530    -0.7890    -0.1580 ca         1 M8S       0.021000
      4 C23         -5.0120     1.5540    -0.1370 ca         1 M8S       0.021000
      5 C15         -2.6410     0.9550    -0.0250 ca         1 M8S       0.040000
      6 C18         -5.3630     0.1920    -0.1870 ca         1 M8S      -0.305500
      7 C2           3.1190     0.5410    -0.8430 c          1 M8S       0.563000
      8 C26          3.0790     0.7380     1.4630 c          1 M8S       0.622000
      9 C13         -0.0830     0.7480     0.1360 c          1 M8S       0.592100
     10 C6           6.7920    -2.4510     0.1530 c3         1 M8S      -0.073900
     11 C7           7.3630    -1.0250     0.3280 c3         1 M8S      -0.073900
     12 C5           5.2580    -2.5820     0.2600 c3         1 M8S      -0.070400
     13 C8           7.0380    -0.0850    -0.8530 c3         1 M8S      -0.070400
     14 C4           4.4290    -1.6450    -0.6580 c3         1 M8S      -0.073400
     15 C9           5.6710     0.6430    -0.8010 c3         1 M8S      -0.073400
     16 C3           4.4250    -0.1340    -0.2740 c5         1 M8S       0.057400
     17 C12          1.1340     1.6920     0.1960 c3         1 M8S       0.028000
     18 N10          4.2330     0.0790     1.1800 ns         1 M8S      -0.513900
     19 N11          2.4540     1.0040     0.2760 n          1 M8S      -0.373400
     20 N21         -7.4530    -0.5230     1.2870 n8         1 M8S      -1.001100
     21 N14         -1.2990     1.4150     0.0550 ns         1 M8S      -0.144000
     22 O27          2.6830     1.0310     2.5770 o          1 M8S      -0.549000
     23 O25          0.0340    -0.4740     0.1610 o          1 M8S      -0.560100
     24 S19         -7.0830    -0.2980    -0.2890 sy         1 M8S       1.132600
     25 H1          -2.2550    -1.1950    -0.0600 ha         1 M8S       0.134500
     26 H2          -3.4030     2.9820    -0.0190 ha         1 M8S       0.134500
     27 H3          -4.6090    -1.8480    -0.1960 ha         1 M8S       0.137500
     28 H4          -5.7780     2.3290    -0.1610 ha         1 M8S       0.137500
     29 H5           7.1170    -2.8490    -0.8160 hc         1 M8S       0.040200
     30 H6           7.2440    -3.1010     0.9130 hc         1 M8S       0.040200
     31 H7           7.0260    -0.5860     1.2750 hc         1 M8S       0.040200
     32 H8           8.4540    -1.1110     0.4020 hc         1 M8S       0.040200
     33 H9           4.9950    -3.6190     0.0150 hc         1 M8S       0.043700
     34 H10          4.9560    -2.4440     1.3050 hc         1 M8S       0.043700
     35 H11          7.8220     0.6810    -0.9120 hc         1 M8S       0.043700
     36 H12          7.1090    -0.6500    -1.7910 hc         1 M8S       0.043700
     37 H13          4.7460    -1.7750    -1.7000 hc         1 M8S       0.061950
     38 H14          3.3960    -2.0130    -0.6210 hc         1 M8S       0.061950
     39 H15          5.7930     1.5590    -0.2090 hc         1 M8S       0.061950
     40 H16          5.4710     0.9940    -1.8210 hc         1 M8S       0.061950
     41 H17          1.1060     2.3280    -0.6970 h1         1 M8S       0.089700
     42 H18          1.0040     2.3470     1.0670 h1         1 M8S       0.089700
     43 H19          4.8440    -0.2090     1.9340 hn         1 M8S       0.353500
     44 H20         -6.7260     0.0110     1.7560 hn         1 M8S       0.471500
     45 H21         -8.2810     0.0610     1.3740 hn         1 M8S       0.471500
     46 H22         -1.2170     2.4240     0.0510 hn         1 M8S       0.155000
     47 O1           2.7270     0.6490    -1.9980 o          1 M8S      -0.501000
     48 O20         -7.9060     0.8430    -0.6810 o          1 M8S      -0.547000
     49 O22         -7.2060    -1.6200    -0.9040 o          1 M8S      -0.547000
@<TRIPOS>BOND
     1     1     3 ar  
     2     1     5 ar  
     3     1    25 1   
     4     2     4 ar  
     5     2     5 ar  
     6     2    26 1   
     7     3     6 ar  
     8     3    27 1   
     9     4     6 ar  
    10     4    28 1   
    11     5    21 1   
    12     6    24 1   
    13     7    16 1   
    14     7    19 1   
    15     7    47 2   
    16     8    18 1   
    17     8    19 1   
    18     8    22 2   
    19     9    17 1   
    20     9    21 1   
    21     9    23 2   
    22    10    11 1   
    23    10    12 1   
    24    10    29 1   
    25    10    30 1   
    26    11    13 1   
    27    11    31 1   
    28    11    32 1   
    29    12    14 1   
    30    12    33 1   
    31    12    34 1   
    32    13    15 1   
    33    13    35 1   
    34    13    36 1   
    35    14    16 1   
    36    14    37 1   
    37    14    38 1   
    38    15    16 1   
    39    15    39 1   
    40    15    40 1   
    41    16    18 1   
    42    17    19 1   
    43    17    41 1   
    44    17    42 1   
    45    18    43 1   
    46    20    24 1   
    47    20    44 1   
    48    20    45 1   
    49    21    46 1   
    50    24    48 2   
    51    24    49 2   
@<TRIPOS>SUBSTRUCTURE
     1 M8S         1 TEMP              0 ****  ****    0 ROOT
