@<TRIPOS>MOLECULE
M8T
   64    70     1     0     0
SMALL
No Charge or Current Charge


@<TRIPOS>ATOM
      1 N           10.2190   -15.6620   173.6890 nb         1 M8T      -0.326000
      2 C            9.7600   -14.7870   174.6180 ca         1 M8T       0.142900
      3 O            7.2580   -10.9640   167.4350 o          1 M8T      -0.814000
      4 C1           9.4130   -13.0900   173.1220 ca         1 M8T       0.116500
      5 C10         11.9000   -10.7610   168.7860 ca         1 M8T       0.142900
      6 C11         11.7080    -8.7700   167.6640 ca         1 M8T       0.116500
      7 C12         13.0260    -8.4980   167.9430 ca         1 M8T      -0.071100
      8 C13         13.7620    -9.4410   168.6930 ca         1 M8T       0.415400
      9 C14         12.3440    -6.8190   166.7870 cc         1 M8T       0.459200
     10 C15          8.3060    -8.1460   167.8240 c5         1 M8T       0.188300
     11 C16          8.8330    -8.5350   166.4040 c5         1 M8T       0.124800
     12 C17          9.9780    -7.4910   166.2430 c5         1 M8T       0.286300
     13 C18          8.4630    -6.5900   167.8170 c5         1 M8T       0.140800
     14 C19          8.8980    -5.9410   169.1620 c3         1 M8T       0.241100
     15 C2           9.8630   -13.8950   172.1060 ca         1 M8T      -0.071100
     16 C3          10.2660   -15.2090   172.4260 ca         1 M8T       0.415400
     17 C4           9.3740   -12.0180   171.1670 cc         1 M8T       0.459200
     18 C5           8.6990    -8.7380   171.8220 c5         1 M8T       0.188300
     19 C6           9.4250    -9.3650   173.0520 c5         1 M8T       0.124800
     20 C7           8.6300   -10.6930   173.2320 c5         1 M8T       0.286300
     21 C8           7.2220    -9.1730   172.0790 c5         1 M8T       0.140800
     22 C9           6.3340    -9.3080   170.8140 c3         1 M8T       0.241100
     23 F6           7.8590    -8.3440   165.4090 f          1 M8T      -0.255000
     24 F9           9.2940    -8.5690   174.2020 f          1 M8T      -0.255000
     25 N1           9.3510   -13.5140   174.4000 nb         1 M8T      -0.203000
     26 N2           9.1000   -11.8950   172.5360 na         1 M8T      -0.302800
     27 N3           9.8500   -13.2450   170.8700 nd         1 M8T      -0.573100
     28 N4          13.1990   -10.5800   169.1210 nb         1 M8T      -0.326000
     29 N5          11.1200    -9.9130   168.0750 nb         1 M8T      -0.203000
     30 N6          11.2620    -7.6940   166.9320 na         1 M8T      -0.302800
     31 N7          13.4480    -7.2800   167.4060 nd         1 M8T      -0.573100
     32 O1           7.2720   -10.4230   172.8220 os         1 M8T      -0.450000
     33 O10          8.7610    -7.2890   171.8760 os         1 M8T      -0.571400
     34 O2           7.0500   -10.0450   169.8090 os         1 M8T      -0.638400
     35 O5           9.3890    -6.2690   166.7410 os         1 M8T      -0.450000
     36 O7           6.8970    -8.4650   167.9660 os         1 M8T      -0.571400
     37 O8           9.9030    -6.7450   169.8000 os         1 M8T      -0.638400
     38 P            6.5150    -9.9990   168.2940 p5         1 M8T       1.409300
     39 P1          10.1260    -6.5800   171.3820 p5         1 M8T       1.409300
     40 N10         10.7310   -16.0880   171.4970 nv         1 M8T      -1.059400
     41 H            9.7160   -15.1440   175.6450 h5         1 M8T       0.027100
     42 H14         12.2620    -5.8900   166.2310 h5         1 M8T       0.128800
     43 H15          8.8870    -8.6240   168.6220 h1         1 M8T       0.054200
     44 H16          9.1910    -9.5680   166.3400 h1         1 M8T       0.120700
     45 H17         10.2330    -7.3780   165.1820 h2         1 M8T       0.094200
     46 H18          7.5050    -6.1280   167.5440 h1         1 M8T       0.065700
     47 H191         9.2720    -4.9260   168.9700 h1         1 M8T       0.040950
     48 H192         8.0080    -5.8550   169.7990 h1         1 M8T       0.040950
     49 H4           9.2080   -11.2180   170.4570 h5         1 M8T       0.128800
     50 H5           9.1000    -9.1040   170.8690 h1         1 M8T       0.054200
     51 H6          10.4920    -9.5460   172.8740 h1         1 M8T       0.120700
     52 H7           8.6360   -10.9620   174.2960 h2         1 M8T       0.094200
     53 H8           6.7390    -8.4380   172.7360 h1         1 M8T       0.065700
     54 H91          6.0880    -8.2990   170.4570 h1         1 M8T       0.040950
     55 H92          5.3970    -9.8140   171.0810 h1         1 M8T       0.040950
     56 HN9         15.4540    -9.8270   169.7760 hn         1 M8T       0.490750
     57 H1          15.4620    -8.3360   168.8930 hn         1 M8T       0.490750
     58 H111        11.2570   -16.8950   171.8210 hn         1 M8T       0.490750
     59 H9          10.9740   -15.7140   170.5830 hn         1 M8T       0.490750
     60 O22         11.3400    -7.3140   171.8390 o          1 M8T      -0.814000
     61 N9          15.0720    -9.2670   169.0190 nv         1 M8T      -1.059400
     62 O3           5.0420   -10.2220   168.2410 o          1 M8T      -0.814000
     63 O4          10.1670    -5.1400   171.7670 o          1 M8T      -0.814000
     64 H10         11.4370   -11.6890   169.1140 h5         1 M8T       0.027100
@<TRIPOS>BOND
     1     1     2 ar  
     2     1    16 ar  
     3     2    25 ar  
     4     2    41 1   
     5     3    38 1   
     6     4    15 ar  
     7     4    25 ar  
     8     4    26 1   
     9     5    28 ar  
    10     5    29 ar  
    11     5    64 1   
    12     6     7 ar  
    13     6    29 ar  
    14     6    30 1   
    15     7     8 ar  
    16     7    31 1   
    17     8    28 ar  
    18     8    61 1   
    19     9    30 1   
    20     9    31 2   
    21     9    42 1   
    22    10    11 1   
    23    10    13 1   
    24    10    36 1   
    25    10    43 1   
    26    11    12 1   
    27    11    23 1   
    28    11    44 1   
    29    12    30 1   
    30    12    35 1   
    31    12    45 1   
    32    13    14 1   
    33    13    35 1   
    34    13    46 1   
    35    14    37 1   
    36    14    47 1   
    37    14    48 1   
    38    15    16 ar  
    39    15    27 1   
    40    16    40 1   
    41    17    26 1   
    42    17    27 2   
    43    17    49 1   
    44    18    19 1   
    45    18    21 1   
    46    18    33 1   
    47    18    50 1   
    48    19    20 1   
    49    19    24 1   
    50    19    51 1   
    51    20    26 1   
    52    20    32 1   
    53    20    52 1   
    54    21    22 1   
    55    21    32 1   
    56    21    53 1   
    57    22    34 1   
    58    22    54 1   
    59    22    55 1   
    60    33    39 1   
    61    34    38 1   
    62    36    38 1   
    63    37    39 1   
    64    38    62 1   
    65    39    60 1   
    66    39    63 1   
    67    40    58 1   
    68    40    59 1   
    69    56    61 1   
    70    57    61 1   
@<TRIPOS>SUBSTRUCTURE
     1 M8T         1 TEMP              0 ****  ****    0 ROOT
