@<TRIPOS>MOLECULE
M8T
   64    70     1     0     0
SMALL
abcg2


@<TRIPOS>ATOM
      1 N           12.1330   -13.8620   172.1030 nb         1 M8T      -0.326000
      2 C           11.7140   -13.2290   173.2040 ca         1 M8T       0.142900
      3 O            6.3780   -10.5010   167.6050 o          1 M8T      -0.814000
      4 C1          10.1140   -12.1230   172.1510 ca         1 M8T       0.116500
      5 C10         13.2190   -11.6710   166.9150 ca         1 M8T       0.142900
      6 C11         12.1080   -10.0770   167.9720 ca         1 M8T       0.116500
      7 C12         12.6880   -10.4110   169.1950 ca         1 M8T      -0.071100
      8 C13         13.6150   -11.4680   169.1850 ca         1 M8T       0.415400
      9 C14         11.3910    -8.7610   169.5940 cc         1 M8T       0.459200
     10 C15          8.2710    -8.0800   168.1160 c5         1 M8T       0.188300
     11 C16          9.0620    -8.9090   167.1130 c5         1 M8T       0.124800
     12 C17         10.4610    -8.3050   167.2540 c5         1 M8T       0.286300
     13 C18          8.8950    -6.6950   167.9560 c5         1 M8T       0.140800
     14 C19          8.7810    -5.7850   169.1590 c3         1 M8T       0.241100
     15 C2          10.4500   -12.6980   170.9260 ca         1 M8T      -0.071100
     16 C3          11.5130   -13.6180   170.9330 ca         1 M8T       0.415400
     17 C4           8.7920   -11.4090   170.5320 cc         1 M8T       0.459200
     18 C5           8.0700    -8.3040   172.0220 c5         1 M8T       0.188300
     19 C6           8.9140    -9.0870   173.0190 c5         1 M8T       0.124800
     20 C7           8.3290   -10.4940   172.8760 c5         1 M8T       0.286300
     21 C8           6.6950    -8.9480   172.1840 c5         1 M8T       0.140800
     22 C9           5.7790    -8.8430   170.9860 c3         1 M8T       0.241100
     23 F6           8.6070    -8.6500   165.8150 f          1 M8T      -0.255000
     24 F9           8.6520    -8.6400   174.3200 f          1 M8T      -0.255000
     25 N1          10.7190   -12.3500   173.3210 nb         1 M8T      -0.203000
     26 N2           9.0430   -11.2990   171.8850 na         1 M8T      -0.302800
     27 N3           9.6110   -12.2360   169.9280 nd         1 M8T      -0.573100
     28 N4          13.8580   -12.0860   168.0140 nb         1 M8T      -0.326000
     29 N5          12.3330   -10.6810   166.8000 nb         1 M8T      -0.203000
     30 N6          11.2780    -9.0110   168.2400 na         1 M8T      -0.302800
     31 N7          12.2240    -9.5750   170.1950 nd         1 M8T      -0.573100
     32 O1           6.9800   -10.3310   172.4890 os         1 M8T      -0.450000
     33 O10          7.9830    -6.9130   172.2090 os         1 M8T      -0.571400
     34 O2           6.3510    -9.5440   169.8860 os         1 M8T      -0.638400
     35 O5          10.2810    -6.9600   167.6460 os         1 M8T      -0.450000
     36 O7           6.8780    -8.0120   167.9340 os         1 M8T      -0.571400
     37 O8           9.4960    -6.3530   170.2520 os         1 M8T      -0.638400
     38 P            5.9240    -9.2870   168.3390 p5         1 M8T       1.409300
     39 P1           9.2420    -5.9390   171.8030 p5         1 M8T       1.409300
     40 N10         11.9100   -14.2830   169.8300 nv         1 M8T      -1.059400
     41 H           12.2550   -13.4640   174.1140 h5         1 M8T       0.027100
     42 H14         10.8480    -7.9540   170.0570 h5         1 M8T       0.128800
     43 H15          8.5070    -8.4720   169.1050 h1         1 M8T       0.054200
     44 H16          9.0250    -9.9820   167.2740 h1         1 M8T       0.120700
     45 H17         10.9950    -8.3560   166.3050 h2         1 M8T       0.094200
     46 H18          8.4240    -6.1920   167.1060 h1         1 M8T       0.065700
     47 H191         9.1970    -4.8040   168.9250 h1         1 M8T       0.040950
     48 H192         7.7210    -5.6650   169.3950 h1         1 M8T       0.040950
     49 H4           7.9820   -10.8700   170.0700 h5         1 M8T       0.128800
     50 H5           8.4630    -8.5300   171.0310 h1         1 M8T       0.054200
     51 H6           9.9860    -9.0340   172.8550 h1         1 M8T       0.120700
     52 H7           8.3900   -11.0300   173.8230 h2         1 M8T       0.094200
     53 H8           6.1880    -8.4870   173.0370 h1         1 M8T       0.065700
     54 H91          5.6410    -7.7830   170.7540 h1         1 M8T       0.040950
     55 H92          4.8040    -9.2740   171.2220 h1         1 M8T       0.040950
     56 HN9         14.7850   -12.7350   170.2510 hn         1 M8T       0.490750
     57 H1          13.9670   -11.5480   171.1880 hn         1 M8T       0.490750
     58 H111        12.7860   -14.7790   169.8630 hn         1 M8T       0.490750
     59 H9          11.5950   -13.9640   168.9280 hn         1 M8T       0.490750
     60 O22         10.4670    -6.3810   172.5270 o          1 M8T      -0.814000
     61 N9          14.2850   -11.8610   170.2850 nv         1 M8T      -1.059400
     62 O3           4.5310    -8.7730   168.2430 o          1 M8T      -0.814000
     63 O4           8.7100    -4.5530   171.9100 o          1 M8T      -0.814000
     64 H10         13.4530   -12.2110   166.0030 h5         1 M8T       0.027100
@<TRIPOS>BOND
     1     1     2 ar  
     2     1    16 ar  
     3     2    25 ar  
     4     2    41 1   
     5     3    38 1   
     6     4    15 ar  
     7     4    25 ar  
     8     4    26 1   
     9     5    28 ar  
    10     5    29 ar  
    11     5    64 1   
    12     6     7 ar  
    13     6    29 ar  
    14     6    30 1   
    15     7     8 ar  
    16     7    31 1   
    17     8    28 ar  
    18     8    61 1   
    19     9    30 1   
    20     9    31 2   
    21     9    42 1   
    22    10    11 1   
    23    10    13 1   
    24    10    36 1   
    25    10    43 1   
    26    11    12 1   
    27    11    23 1   
    28    11    44 1   
    29    12    30 1   
    30    12    35 1   
    31    12    45 1   
    32    13    14 1   
    33    13    35 1   
    34    13    46 1   
    35    14    37 1   
    36    14    47 1   
    37    14    48 1   
    38    15    16 ar  
    39    15    27 1   
    40    16    40 1   
    41    17    26 1   
    42    17    27 2   
    43    17    49 1   
    44    18    19 1   
    45    18    21 1   
    46    18    33 1   
    47    18    50 1   
    48    19    20 1   
    49    19    24 1   
    50    19    51 1   
    51    20    26 1   
    52    20    32 1   
    53    20    52 1   
    54    21    22 1   
    55    21    32 1   
    56    21    53 1   
    57    22    34 1   
    58    22    54 1   
    59    22    55 1   
    60    33    39 1   
    61    34    38 1   
    62    36    38 1   
    63    37    39 1   
    64    38    62 1   
    65    39    60 1   
    66    39    63 1   
    67    40    58 1   
    68    40    59 1   
    69    56    61 1   
    70    57    61 1   
@<TRIPOS>SUBSTRUCTURE
     1 M8T         1 TEMP              0 ****  ****    0 ROOT
