@<TRIPOS>MOLECULE
M8V
   46    48     1     0     0
SMALL
abcg2


@<TRIPOS>ATOM
      1 C15         -3.1980    -1.6430     0.6130 ca         1 M8V      -0.176500
      2 C23         -2.4130     0.4020    -0.3990 ca         1 M8V      -0.176500
      3 C16         -4.5000    -1.2040     0.5200 ca         1 M8V       0.021500
      4 C22         -3.7250     0.8380    -0.4960 ca         1 M8V       0.021500
      5 C14         -2.1390    -0.8500     0.1540 ca         1 M8V       0.040000
      6 C17         -4.7620     0.0420    -0.0380 ca         1 M8V      -0.306500
      7 C2           3.4420    -0.3570     0.9390 c          1 M8V       0.569000
      8 C25          3.2640    -0.9110    -1.2730 c          1 M8V       0.622000
      9 C12          0.3410    -0.8010     0.0420 c          1 M8V       0.594100
     10 C7           7.0340     1.9790     0.1860 c6         1 M8V      -0.079400
     11 C6           7.1150     0.4630     0.0490 c6         1 M8V      -0.074900
     12 C8           5.7020     2.5110    -0.3320 c6         1 M8V      -0.074900
     13 C5           5.9400    -0.2220     0.7390 c6         1 M8V      -0.076900
     14 C9           4.5230     1.8280     0.3530 c6         1 M8V      -0.076900
     15 C3           4.6000     0.3030     0.2100 c5         1 M8V       0.046400
     16 C11          1.5120    -1.7500     0.2700 c3         1 M8V       0.028000
     17 N4           4.3450    -0.1280    -1.1500 ns         1 M8V      -0.512900
     18 N10          2.7500    -1.0860     0.0180 n          1 M8V      -0.375400
     19 N20         -6.7450     1.0790     1.3720 n8         1 M8V      -1.003100
     20 N13         -0.8620    -1.3890     0.2700 ns         1 M8V      -0.147000
     21 O26          2.7840    -1.4070    -2.2690 o          1 M8V      -0.547000
     22 O24          0.5060     0.3470    -0.3050 o          1 M8V      -0.555100
     23 S18         -6.4330     0.5880    -0.1750 sy         1 M8V       1.131600
     24 H1          -2.9950    -2.6150     1.0450 ha         1 M8V       0.134500
     25 H2          -1.6240     1.0380    -0.7650 ha         1 M8V       0.134500
     26 H3          -5.3010    -1.8360     0.8800 ha         1 M8V       0.137500
     27 H4          -3.9220     1.8050    -0.9390 ha         1 M8V       0.137500
     28 H5           7.1490     2.2530     1.2400 hc         1 M8V       0.045700
     29 H6           7.8610     2.4500    -0.3500 hc         1 M8V       0.045700
     30 H7           7.1380     0.1870    -1.0110 hc         1 M8V       0.044700
     31 H8           8.0470     0.0900     0.4770 hc         1 M8V       0.044700
     32 H9           5.6330     3.5880    -0.1710 hc         1 M8V       0.044700
     33 H10          5.6410     2.3650    -1.4160 hc         1 M8V       0.044700
     34 H11          5.9890    -1.3050     0.6040 hc         1 M8V       0.064200
     35 H12          5.9840    -0.0290     1.8150 hc         1 M8V       0.064200
     36 H13          4.5290     2.0720     1.4190 hc         1 M8V       0.064200
     37 H14          3.5750     2.1870    -0.0550 hc         1 M8V       0.064200
     38 H15          1.5010    -2.1190     1.2970 h1         1 M8V       0.089200
     39 H16          1.4210    -2.6180    -0.3840 h1         1 M8V       0.089200
     40 H17          4.9030     0.1370    -1.9460 hn         1 M8V       0.354500
     41 H18         -6.2880     1.9540     1.6050 hn         1 M8V       0.472000
     42 H19         -7.7440     1.1480     1.5440 hn         1 M8V       0.472000
     43 H20         -0.8320    -2.3460     0.5900 hn         1 M8V       0.155000
     44 O1           3.1800    -0.2660     2.1140 o          1 M8V      -0.502000
     45 O19         -6.4690     1.6830    -1.1360 o          1 M8V      -0.546500
     46 O21         -7.2990    -0.5600    -0.4050 o          1 M8V      -0.546500
@<TRIPOS>BOND
     1     1     3 ar  
     2     1     5 ar  
     3     1    24 1   
     4     2     4 ar  
     5     2     5 ar  
     6     2    25 1   
     7     3     6 ar  
     8     3    26 1   
     9     4     6 ar  
    10     4    27 1   
    11     5    20 1   
    12     6    23 1   
    13     7    15 1   
    14     7    18 1   
    15     7    44 2   
    16     8    17 1   
    17     8    18 1   
    18     8    21 2   
    19     9    16 1   
    20     9    20 1   
    21     9    22 2   
    22    10    11 1   
    23    10    12 1   
    24    10    28 1   
    25    10    29 1   
    26    11    13 1   
    27    11    30 1   
    28    11    31 1   
    29    12    14 1   
    30    12    32 1   
    31    12    33 1   
    32    13    15 1   
    33    13    34 1   
    34    13    35 1   
    35    14    15 1   
    36    14    36 1   
    37    14    37 1   
    38    15    17 1   
    39    16    18 1   
    40    16    38 1   
    41    16    39 1   
    42    17    40 1   
    43    19    23 1   
    44    19    41 1   
    45    19    42 1   
    46    20    43 1   
    47    23    45 2   
    48    23    46 2   
@<TRIPOS>SUBSTRUCTURE
     1 M8V         1 TEMP              0 ****  ****    0 ROOT
