@<TRIPOS>MOLECULE
M8V
   46    48     1     0     0
SMALL
No Charge or Current Charge


@<TRIPOS>ATOM
      1 C15         -3.3460    -1.7490     0.4120 ca         1 M8V      -0.176500
      2 C23         -2.7100     0.4970    -0.2480 ca         1 M8V      -0.176500
      3 C16         -4.7030    -1.3870     0.3630 ca         1 M8V       0.021500
      4 C22         -4.0650     0.8670    -0.2990 ca         1 M8V       0.021500
      5 C14         -2.3360    -0.8180     0.1080 ca         1 M8V       0.040000
      6 C17         -5.0660    -0.0750     0.0080 ca         1 M8V      -0.306500
      7 C2           3.4040    -0.1420     0.9130 c          1 M8V       0.569000
      8 C25          3.4180    -0.9260    -1.2670 c          1 M8V       0.622000
      9 C12          0.2240    -0.6270    -0.0440 c          1 M8V       0.594100
     10 C7           7.3240     1.9080     0.1900 c6         1 M8V      -0.079400
     11 C6           7.2980     0.3620     0.2560 c6         1 M8V      -0.074900
     12 C8           6.0600     2.4580    -0.5120 c6         1 M8V      -0.074900
     13 C5           5.9970    -0.1470     0.9300 c6         1 M8V      -0.076900
     14 C9           4.7690     1.9310     0.1690 c6         1 M8V      -0.076900
     15 C3           4.7140     0.3750     0.2150 c5         1 M8V       0.046400
     16 C11          1.4480    -1.5400     0.1620 c3         1 M8V       0.028000
     17 N4           4.5650    -0.2080    -1.1380 ns         1 M8V      -0.512900
     18 N10          2.7650    -0.8810    -0.0640 n          1 M8V      -0.375400
     19 N20         -7.0760     0.8140     1.4990 n8         1 M8V      -1.003100
     20 N13         -0.9890    -1.2650     0.1810 ns         1 M8V      -0.147000
     21 O26          3.0490    -1.4980    -2.2760 o          1 M8V      -0.547000
     22 O24          0.3340     0.5500    -0.3760 o          1 M8V      -0.555100
     23 S18         -6.7950     0.3880    -0.0540 sy         1 M8V       1.131600
     24 H1          -3.0810    -2.7670     0.6890 ha         1 M8V       0.134500
     25 H2          -1.9690     1.2500    -0.4910 ha         1 M8V       0.134500
     26 H3          -5.4650    -2.1280     0.6040 ha         1 M8V       0.137500
     27 H4          -4.3270     1.8870    -0.5790 ha         1 M8V       0.137500
     28 H5           7.3910     2.3200     1.2070 hc         1 M8V       0.045700
     29 H6           8.2240     2.2450    -0.3420 hc         1 M8V       0.045700
     30 H7           7.3840    -0.0550    -0.7570 hc         1 M8V       0.044700
     31 H8           8.1720    -0.0000     0.8140 hc         1 M8V       0.044700
     32 H9           6.0710     3.5560    -0.4880 hc         1 M8V       0.044700
     33 H10          6.0690     2.1720    -1.5720 hc         1 M8V       0.044700
     34 H11          5.9940    -1.2460     0.9420 hc         1 M8V       0.064200
     35 H12          5.9850     0.1690     1.9820 hc         1 M8V       0.064200
     36 H13          4.7070     2.3310     1.1910 hc         1 M8V       0.064200
     37 H14          3.8880     2.3180    -0.3630 hc         1 M8V       0.064200
     38 H15          1.4040    -1.9270     1.1880 h1         1 M8V       0.089200
     39 H16          1.3410    -2.3970    -0.5140 h1         1 M8V       0.089200
     40 H17          5.1930    -0.1150    -1.9270 hn         1 M8V       0.354500
     41 H18         -6.1370     0.9970     1.8430 hn         1 M8V       0.472000
     42 H19         -7.4750     1.7410     1.3730 hn         1 M8V       0.472000
     43 H20         -0.9010    -2.2370     0.4490 hn         1 M8V       0.155000
     44 O1           2.9950     0.0380     2.0530 o          1 M8V      -0.502000
     45 O19         -6.9530     1.6390    -0.7920 o          1 M8V      -0.546500
     46 O21         -7.6350    -0.7870    -0.2870 o          1 M8V      -0.546500
@<TRIPOS>BOND
     1     1     3 ar  
     2     1     5 ar  
     3     1    24 1   
     4     2     4 ar  
     5     2     5 ar  
     6     2    25 1   
     7     3     6 ar  
     8     3    26 1   
     9     4     6 ar  
    10     4    27 1   
    11     5    20 1   
    12     6    23 1   
    13     7    15 1   
    14     7    18 1   
    15     7    44 2   
    16     8    17 1   
    17     8    18 1   
    18     8    21 2   
    19     9    16 1   
    20     9    20 1   
    21     9    22 2   
    22    10    11 1   
    23    10    12 1   
    24    10    28 1   
    25    10    29 1   
    26    11    13 1   
    27    11    30 1   
    28    11    31 1   
    29    12    14 1   
    30    12    32 1   
    31    12    33 1   
    32    13    15 1   
    33    13    34 1   
    34    13    35 1   
    35    14    15 1   
    36    14    36 1   
    37    14    37 1   
    38    15    17 1   
    39    16    18 1   
    40    16    38 1   
    41    16    39 1   
    42    17    40 1   
    43    19    23 1   
    44    19    41 1   
    45    19    42 1   
    46    20    43 1   
    47    23    45 2   
    48    23    46 2   
@<TRIPOS>SUBSTRUCTURE
     1 M8V         1 TEMP              0 ****  ****    0 ROOT
