@<TRIPOS>MOLECULE
M8X
   50    52     1     0     0
SMALL
abcg2


@<TRIPOS>ATOM
      1 C10         23.2110    39.9780    41.8080 c3         1 M8X      -0.067900
      2 C13         17.8100    45.4360    39.9760 cc         1 M8X      -0.149400
      3 C17         16.7570    48.7670    40.9240 ca         1 M8X       0.121100
      4 C20         18.4770    48.1550    42.5230 ca         1 M8X      -0.108000
      5 C21         18.6620    46.9190    41.9440 ca         1 M8X      -0.081000
      6 C22         17.8860    46.5890    40.8210 ca         1 M8X      -0.051800
      7 C01         17.0900    43.0000    41.4960 c3         1 M8X       0.154100
      8 C03         19.4200    42.5040    41.6480 c3         1 M8X       0.167800
      9 C04         20.8380    43.0410    41.8080 c3         1 M8X      -0.080400
     10 C05         21.7880    42.0490    42.4830 c3         1 M8X      -0.056700
     11 C06         23.1520    42.7030    42.7160 c3         1 M8X      -0.065900
     12 C07         24.0620    42.0020    43.7570 c3         1 M8X      -0.067900
     13 C08         23.5760    40.6460    44.2650 c3         1 M8X      -0.069400
     14 C09         23.5840    39.5310    43.2170 c3         1 M8X      -0.069400
     15 C11         21.8980    40.7440    41.6680 c3         1 M8X      -0.065900
     16 C12         18.6280    44.1950    40.1050 c3         1 M8X       0.242000
     17 C14         16.8530    45.7090    39.0390 cd         1 M8X      -0.157100
     18 C16         16.9480    47.5150    40.3290 ca         1 M8X      -0.077200
     19 C19         17.5340    49.0730    42.0260 ca         1 M8X      -0.194000
     20 N02         18.4290    43.5360    41.3870 n3         1 M8X      -0.715600
     21 N15         16.3350    46.9550    39.2440 na         1 M8X      -0.208700
     22 O18         15.8300    49.5850    40.3840 oh         1 M8X      -0.548100
     23 H1          23.1660    39.0960    41.1620 hc         1 M8X       0.034700
     24 H2          24.0240    40.5870    41.4030 hc         1 M8X       0.034700
     25 H3          19.0630    48.4380    43.3890 ha         1 M8X       0.109000
     26 H4          19.3840    46.2190    42.3440 ha         1 M8X       0.127000
     27 H5          16.9410    42.5640    42.4850 h1         1 M8X       0.030033
     28 H6          16.3520    43.7920    41.3680 h1         1 M8X       0.030033
     29 H7          16.8750    42.2200    40.7480 h1         1 M8X       0.030033
     30 H8          19.1330    42.0160    42.5860 h1         1 M8X       0.028700
     31 H9          19.3960    41.7160    40.8750 h1         1 M8X       0.028700
     32 H10         21.2630    43.3250    40.8400 hc         1 M8X       0.045700
     33 H11         20.7920    43.9540    42.4120 hc         1 M8X       0.045700
     34 H12         21.3500    41.8190    43.4600 hc         1 M8X       0.047700
     35 H13         23.6700    42.7820    41.7560 hc         1 M8X       0.034950
     36 H14         22.9870    43.7340    43.0390 hc         1 M8X       0.034950
     37 H15         25.0700    41.8900    43.3480 hc         1 M8X       0.034700
     38 H16         24.1700    42.6580    44.6240 hc         1 M8X       0.034700
     39 H17         22.5740    40.7550    44.6840 hc         1 M8X       0.034950
     40 H18         24.2060    40.3430    45.1060 hc         1 M8X       0.034950
     41 H19         22.9140    38.7290    43.5420 hc         1 M8X       0.034950
     42 H20         24.5820    39.0860    43.1710 hc         1 M8X       0.034950
     43 H21         21.7770    40.9890    40.6060 hc         1 M8X       0.034950
     44 H22         21.0600    40.0850    41.9160 hc         1 M8X       0.034950
     45 H23         18.4120    43.5180    39.2600 h1         1 M8X       0.033700
     46 H24         19.6840    44.4610    40.0180 h1         1 M8X       0.033700
     47 H25         16.4970    45.0950    38.2260 h4         1 M8X       0.210000
     48 H26         17.4160    50.0340    42.5150 ha         1 M8X       0.108000
     49 H28         15.6190    47.3830    38.6810 hn         1 M8X       0.359000
     50 H29         15.7920    50.4150    40.8730 ho         1 M8X       0.467000
@<TRIPOS>BOND
     1     1    14 1   
     2     1    15 1   
     3     1    23 1   
     4     1    24 1   
     5     2     6 1   
     6     2    16 1   
     7     2    17 2   
     8     3    18 ar  
     9     3    19 ar  
    10     3    22 1   
    11     4     5 ar  
    12     4    19 ar  
    13     4    25 1   
    14     5     6 ar  
    15     5    26 1   
    16     6    18 ar  
    17     7    20 1   
    18     7    27 1   
    19     7    28 1   
    20     7    29 1   
    21     8     9 1   
    22     8    20 1   
    23     8    30 1   
    24     8    31 1   
    25     9    10 1   
    26     9    32 1   
    27     9    33 1   
    28    10    11 1   
    29    10    15 1   
    30    10    34 1   
    31    11    12 1   
    32    11    35 1   
    33    11    36 1   
    34    12    13 1   
    35    12    37 1   
    36    12    38 1   
    37    13    14 1   
    38    13    39 1   
    39    13    40 1   
    40    14    41 1   
    41    14    42 1   
    42    15    43 1   
    43    15    44 1   
    44    16    20 1   
    45    16    45 1   
    46    16    46 1   
    47    17    21 1   
    48    17    47 1   
    49    18    21 1   
    50    19    48 1   
    51    21    49 1   
    52    22    50 1   
@<TRIPOS>SUBSTRUCTURE
     1 M8X         1 TEMP              0 ****  ****    0 ROOT
