@<TRIPOS>MOLECULE
M8X
   50    52     1     0     0
SMALL
No Charge or Current Charge


@<TRIPOS>ATOM
      1 C10         23.1560    39.7410    41.8540 c3         1 M8X      -0.067900
      2 C13         17.8140    45.5360    39.9840 cc         1 M8X      -0.149400
      3 C17         16.5040    48.7940    40.8190 ca         1 M8X       0.121100
      4 C20         18.2650    48.3730    42.4710 ca         1 M8X      -0.108000
      5 C21         18.5300    47.1170    41.8850 ca         1 M8X      -0.081000
      6 C22         17.7670    46.7350    40.7720 ca         1 M8X      -0.051800
      7 C01         17.1060    43.0540    41.4680 c3         1 M8X       0.154100
      8 C03         19.4960    42.5390    41.6920 c3         1 M8X       0.167800
      9 C04         20.9340    43.0610    41.9380 c3         1 M8X      -0.080400
     10 C05         21.9220    41.9960    42.4950 c3         1 M8X      -0.056700
     11 C06         23.2740    42.6700    42.8810 c3         1 M8X      -0.065900
     12 C07         24.3380    41.7830    43.5910 c3         1 M8X      -0.067900
     13 C08         23.7920    40.5160    44.2960 c3         1 M8X      -0.069400
     14 C09         23.3190    39.3740    43.3510 c3         1 M8X      -0.069400
     15 C11         22.0610    40.7840    41.5260 c3         1 M8X      -0.065900
     16 C12         18.7510    44.3680    40.1800 c3         1 M8X       0.242000
     17 C14         16.8320    45.6830    39.0060 cd         1 M8X      -0.157100
     18 C16         16.7890    47.5390    40.2560 ca         1 M8X      -0.077200
     19 C19         17.2540    49.2100    41.9390 ca         1 M8X      -0.194000
     20 N02         18.4860    43.5930    41.4210 n3         1 M8X      -0.715600
     21 N15         16.1840    46.9330    39.1670 na         1 M8X      -0.208700
     22 O18         15.5270    49.5920    40.2990 oh         1 M8X      -0.548100
     23 H1          22.9250    38.8240    41.2990 hc         1 M8X       0.034700
     24 H2          24.1160    40.0820    41.4490 hc         1 M8X       0.034700
     25 H3          18.8390    48.6970    43.3360 ha         1 M8X       0.109000
     26 H4          19.3000    46.4620    42.2860 ha         1 M8X       0.127000
     27 H5          16.9300    42.5200    42.4110 h1         1 M8X       0.030033
     28 H6          16.3620    43.8590    41.4010 h1         1 M8X       0.030033
     29 H7          16.9310    42.3530    40.6400 h1         1 M8X       0.030033
     30 H8          19.1940    41.9800    42.5880 h1         1 M8X       0.028700
     31 H9          19.5120    41.8230    40.8590 h1         1 M8X       0.028700
     32 H10         21.3450    43.4680    41.0070 hc         1 M8X       0.045700
     33 H11         20.8750    43.8940    42.6490 hc         1 M8X       0.045700
     34 H12         21.4670    41.6230    43.4210 hc         1 M8X       0.047700
     35 H13         23.7280    43.1140    41.9860 hc         1 M8X       0.034950
     36 H14         23.0510    43.5090    43.5520 hc         1 M8X       0.034950
     37 H15         25.1200    41.4980    42.8770 hc         1 M8X       0.034700
     38 H16         24.8480    42.4020    44.3390 hc         1 M8X       0.034700
     39 H17         22.9730    40.8020    44.9680 hc         1 M8X       0.034950
     40 H18         24.5780    40.1170    44.9480 hc         1 M8X       0.034950
     41 H19         22.3740    38.9650    43.7280 hc         1 M8X       0.034950
     42 H20         24.0480    38.5560    43.4150 hc         1 M8X       0.034950
     43 H21         22.2370    41.1530    40.5080 hc         1 M8X       0.034950
     44 H22         21.1010    40.2540    41.4980 hc         1 M8X       0.034950
     45 H23         18.6820    43.7090    39.3030 h1         1 M8X       0.033700
     46 H24         19.7690    44.7770    40.1930 h1         1 M8X       0.033700
     47 H25         16.5520    44.9940    38.2130 h4         1 M8X       0.210000
     48 H26         17.0610    50.1750    42.4010 ha         1 M8X       0.108000
     49 H28         15.4300    47.3160    38.6040 hn         1 M8X       0.359000
     50 H29         15.4870    50.4160    40.8320 ho         1 M8X       0.467000
@<TRIPOS>BOND
     1     1    14 1   
     2     1    15 1   
     3     1    23 1   
     4     1    24 1   
     5     2     6 1   
     6     2    16 1   
     7     2    17 2   
     8     3    18 ar  
     9     3    19 ar  
    10     3    22 1   
    11     4     5 ar  
    12     4    19 ar  
    13     4    25 1   
    14     5     6 ar  
    15     5    26 1   
    16     6    18 ar  
    17     7    20 1   
    18     7    27 1   
    19     7    28 1   
    20     7    29 1   
    21     8     9 1   
    22     8    20 1   
    23     8    30 1   
    24     8    31 1   
    25     9    10 1   
    26     9    32 1   
    27     9    33 1   
    28    10    11 1   
    29    10    15 1   
    30    10    34 1   
    31    11    12 1   
    32    11    35 1   
    33    11    36 1   
    34    12    13 1   
    35    12    37 1   
    36    12    38 1   
    37    13    14 1   
    38    13    39 1   
    39    13    40 1   
    40    14    41 1   
    41    14    42 1   
    42    15    43 1   
    43    15    44 1   
    44    16    20 1   
    45    16    45 1   
    46    16    46 1   
    47    17    21 1   
    48    17    47 1   
    49    18    21 1   
    50    19    48 1   
    51    21    49 1   
    52    22    50 1   
@<TRIPOS>SUBSTRUCTURE
     1 M8X         1 TEMP              0 ****  ****    0 ROOT
