@<TRIPOS>MOLECULE
M8Y
   98   100     1     0     0
SMALL
abcg2


@<TRIPOS>ATOM
      1 C1           2.1200     0.8110     0.5580 c3         1 M8Y       0.117000
      2 N1           3.9880    -0.5050     1.3910 ns         1 M8Y      -0.496900
      3 O1           1.9270    -0.3480    -0.2210 oh         1 M8Y      -0.664000
      4 C2           3.3330     0.6590     1.4940 c          1 M8Y       0.578100
      5 N2          -1.9350     0.1720     2.1300 n3         1 M8Y      -0.451600
      6 O2           3.6580     1.5670     2.2450 o          1 M8Y      -0.616100
      7 C3           5.2770    -0.7800     1.9850 c3         1 M8Y       0.041700
      8 N3          -2.1010    -0.9720     1.3780 ns         1 M8Y      -0.388300
      9 C4           5.2130    -1.8410     3.0900 c3         1 M8Y      -0.065700
     10 N4          -3.7070    -1.9810    -1.4920 ns         1 M8Y      -0.487900
     11 O4          -5.2430    -3.3620    -0.5240 o          1 M8Y      -0.555000
     12 C5           6.6080    -2.1200     3.6430 c3         1 M8Y      -0.088600
     13 N5           7.1510    -0.3810     0.4800 ns         1 M8Y      -0.488900
     14 O5          -5.7820    -2.0060    -2.2370 os         1 M8Y      -0.449100
     15 C7           0.8500     1.0180     1.3830 c3         1 M8Y      -0.063400
     16 C8           0.5200    -0.1280     2.3310 c3         1 M8Y      -0.065400
     17 C9          -0.8070     0.0600     3.0450 c3         1 M8Y       0.156800
     18 C10         -3.1780     0.5110     2.8160 c3         1 M8Y       0.189100
     19 C11         -4.3020     0.6760     1.8330 ca         1 M8Y      -0.083300
     20 C12         -2.2000    -0.9270     0.0330 c          1 M8Y       0.611100
     21 C13         -2.6060    -2.2580    -0.6030 c3         1 M8Y       0.051700
     22 C14         -1.4390    -3.0020    -1.3000 c3         1 M8Y      -0.044000
     23 C15         -0.8690    -2.2210    -2.4850 c3         1 M8Y      -0.089433
     24 C16         -0.3270    -3.2500    -0.2800 c3         1 M8Y      -0.089433
     25 C17         -1.9700    -4.3490    -1.7960 c3         1 M8Y      -0.089433
     26 C19         -7.1110    -2.5100    -2.2270 c3         1 M8Y       0.171900
     27 C20         -5.3110    -0.2720     1.7340 ca         1 M8Y      -0.085500
     28 C21         -6.3320    -0.1440     0.8010 ca         1 M8Y      -0.088000
     29 C22         -6.3280     0.9510    -0.0470 ca         1 M8Y      -0.009900
     30 C23         -5.3290     1.9120     0.0250 ca         1 M8Y      -0.088000
     31 C24         -4.3200     1.7620     0.9630 ca         1 M8Y      -0.085500
     32 C25          2.3680     2.0480    -0.3380 c3         1 M8Y      -0.058100
     33 C26          3.6890     1.9940    -1.0530 ca         1 M8Y      -0.096300
     34 C27          3.8580     1.2570    -2.2230 ca         1 M8Y      -0.105000
     35 C28          5.1140     1.1060    -2.8000 ca         1 M8Y      -0.109000
     36 C29          6.2370     1.7040    -2.2400 ca         1 M8Y      -0.072300
     37 C30          6.0590     2.4840    -1.0990 ca         1 M8Y      -0.109000
     38 C31          4.8120     2.6240    -0.5170 ca         1 M8Y      -0.105000
     39 C32          7.6000     1.5360    -2.8710 c3         1 M8Y      -0.004900
     40 C33          8.7370     1.4720    -1.8830 c2         1 M8Y      -0.190200
     41 C34          6.1760    -1.2250     0.8310 c          1 M8Y       0.579100
     42 C35          4.2660    -1.4070     4.2010 c3         1 M8Y      -0.088600
     43 C36          8.8880     0.5490    -0.9370 c2         1 M8Y      -0.246200
     44 C37          7.9580    -0.6020    -0.7100 c3         1 M8Y       0.135200
     45 HN1          3.5800    -1.2160     0.8040 hn         1 M8Y       0.338500
     46 HO1          2.5220    -0.3430    -0.9800 ho         1 M8Y       0.455000
     47 H3           5.6400     0.1540     2.4200 h1         1 M8Y       0.081700
     48 HN3         -2.3380    -1.8320     1.8610 hn         1 M8Y       0.302500
     49 H4           4.8280    -2.7650     2.6470 hc         1 M8Y       0.066700
     50 HN4         -3.6020    -1.2150    -2.1390 hn         1 M8Y       0.343500
     51 H5           7.0690    -1.2100     4.0330 hc         1 M8Y       0.037367
     52 H5A          6.5560    -2.8390     4.4610 hc         1 M8Y       0.037367
     53 H5B          7.2770    -2.5380     2.8900 hc         1 M8Y       0.037367
     54 HN5          7.2010     0.5200     0.9260 hn         1 M8Y       0.320500
     55 H7           0.9490     1.9440     1.9560 hc         1 M8Y       0.073200
     56 H7A          0.0220     1.1640     0.6850 hc         1 M8Y       0.073200
     57 H8           0.5160    -1.0800     1.7980 hc         1 M8Y       0.050700
     58 H8A          1.2870    -0.2150     3.1070 hc         1 M8Y       0.050700
     59 H9          -0.7850     0.9830     3.6300 h1         1 M8Y       0.038200
     60 H9A         -0.9550    -0.7630     3.7630 h1         1 M8Y       0.038200
     61 H10         -3.4460    -0.2480     3.5670 h1         1 M8Y       0.047200
     62 H10A        -3.0060     1.4450     3.3560 h1         1 M8Y       0.047200
     63 H13         -2.9840    -2.9260     0.1750 h1         1 M8Y       0.079700
     64 H15         -0.4130    -1.2810    -2.1750 hc         1 M8Y       0.040700
     65 H15A        -0.0960    -2.8180    -2.9730 hc         1 M8Y       0.040700
     66 H15B        -1.6310    -2.0090    -3.2370 hc         1 M8Y       0.040700
     67 H16         -0.6980    -3.7650     0.6100 hc         1 M8Y       0.040700
     68 H16A         0.4480    -3.8800    -0.7220 hc         1 M8Y       0.040700
     69 H16B         0.1520    -2.3230     0.0350 hc         1 M8Y       0.040700
     70 H17         -2.7370    -4.2230    -2.5600 hc         1 M8Y       0.040700
     71 H17A        -1.1590    -4.9320    -2.2360 hc         1 M8Y       0.040700
     72 H17B        -2.3970    -4.9360    -0.9810 hc         1 M8Y       0.040700
     73 H19         -7.1370    -3.5840    -2.4150 h1         1 M8Y       0.047367
     74 H19A        -7.6170    -2.2990    -1.2850 h1         1 M8Y       0.047367
     75 H19B        -7.6300    -1.9950    -3.0290 h1         1 M8Y       0.047367
     76 H20         -5.3130    -1.1310     2.3950 ha         1 M8Y       0.121500
     77 H21         -7.1110    -0.8920     0.7480 ha         1 M8Y       0.131000
     78 H23         -5.3260     2.7660    -0.6390 ha         1 M8Y       0.131000
     79 H24         -3.5330     2.5030     1.0130 ha         1 M8Y       0.121500
     80 H25          1.5410     2.1030    -1.0520 hc         1 M8Y       0.073700
     81 H25A         2.3160     2.9460     0.2790 hc         1 M8Y       0.073700
     82 H27          3.0020     0.8010    -2.7090 ha         1 M8Y       0.121500
     83 H28          5.2160     0.5070    -3.6980 ha         1 M8Y       0.114000
     84 H30          6.9100     2.9770    -0.6450 ha         1 M8Y       0.114000
     85 H31          4.7100     3.2260     0.3770 ha         1 M8Y       0.121500
     86 H32          7.5930     0.6380    -3.4950 hc         1 M8Y       0.058200
     87 H32A         7.7790     2.3660    -3.5580 hc         1 M8Y       0.058200
     88 H33          9.4840     2.2540    -1.9510 ha         1 M8Y       0.174000
     89 H35          3.2550    -1.2400     3.8300 hc         1 M8Y       0.037367
     90 H35A         4.2080    -2.1740     4.9750 hc         1 M8Y       0.037367
     91 H35B         4.6060    -0.4820     4.6730 hc         1 M8Y       0.037367
     92 H36          9.7420     0.6170    -0.2710 ha         1 M8Y       0.177000
     93 H37          8.5380    -1.5210    -0.5870 h1         1 M8Y       0.057200
     94 H37A         7.3030    -0.7530    -1.5710 h1         1 M8Y       0.057200
     95 O6           5.9710    -2.2840     0.2520 o          1 M8Y      -0.613100
     96 C18         -4.9340    -2.5170    -1.3390 c          1 M8Y       0.638100
     97 BR1         -7.7110     1.1490    -1.3210 br         1 M8Y      -0.106100
     98 O3          -2.0200     0.0710    -0.6380 o          1 M8Y      -0.574100
@<TRIPOS>BOND
     1     1     3 1   
     2     1     4 1   
     3     1    15 1   
     4     1    32 1   
     5     2     4 1   
     6     2     7 1   
     7     2    45 1   
     8     3    46 1   
     9     4     6 2   
    10     5     8 1   
    11     5    17 1   
    12     5    18 1   
    13     7     9 1   
    14     7    41 1   
    15     7    47 1   
    16     8    20 1   
    17     8    48 1   
    18     9    12 1   
    19     9    42 1   
    20     9    49 1   
    21    10    21 1   
    22    10    50 1   
    23    10    96 1   
    24    11    96 2   
    25    12    51 1   
    26    12    52 1   
    27    12    53 1   
    28    13    41 1   
    29    13    44 1   
    30    13    54 1   
    31    14    26 1   
    32    14    96 1   
    33    15    16 1   
    34    15    55 1   
    35    15    56 1   
    36    16    17 1   
    37    16    57 1   
    38    16    58 1   
    39    17    59 1   
    40    17    60 1   
    41    18    19 1   
    42    18    61 1   
    43    18    62 1   
    44    19    27 ar  
    45    19    31 ar  
    46    20    21 1   
    47    20    98 2   
    48    21    22 1   
    49    21    63 1   
    50    22    23 1   
    51    22    24 1   
    52    22    25 1   
    53    23    64 1   
    54    23    65 1   
    55    23    66 1   
    56    24    67 1   
    57    24    68 1   
    58    24    69 1   
    59    25    70 1   
    60    25    71 1   
    61    25    72 1   
    62    26    73 1   
    63    26    74 1   
    64    26    75 1   
    65    27    28 ar  
    66    27    76 1   
    67    28    29 ar  
    68    28    77 1   
    69    29    30 ar  
    70    29    97 1   
    71    30    31 ar  
    72    30    78 1   
    73    31    79 1   
    74    32    33 1   
    75    32    80 1   
    76    32    81 1   
    77    33    34 ar  
    78    33    38 ar  
    79    34    35 ar  
    80    34    82 1   
    81    35    36 ar  
    82    35    83 1   
    83    36    37 ar  
    84    36    39 1   
    85    37    38 ar  
    86    37    84 1   
    87    38    85 1   
    88    39    40 1   
    89    39    86 1   
    90    39    87 1   
    91    40    43 2   
    92    40    88 1   
    93    41    95 2   
    94    42    89 1   
    95    42    90 1   
    96    42    91 1   
    97    43    44 1   
    98    43    92 1   
    99    44    93 1   
   100    44    94 1   
@<TRIPOS>SUBSTRUCTURE
     1 M8Y         1 TEMP              0 ****  ****    0 ROOT
