@<TRIPOS>MOLECULE
M8Y
   98   100     1     0     0
SMALL
No Charge or Current Charge


@<TRIPOS>ATOM
      1 C1           2.1520     0.6990     0.5530 c3         1 M8Y       0.117000
      2 N1           4.1840    -0.4540     1.4080 ns         1 M8Y      -0.496900
      3 O1           2.0270    -0.5320    -0.2060 oh         1 M8Y      -0.664000
      4 C2           3.3760     0.6550     1.5430 c          1 M8Y       0.578100
      5 N2          -2.0330     0.1280     2.2720 n3         1 M8Y      -0.451600
      6 O2           3.6230     1.5410     2.3540 o          1 M8Y      -0.616100
      7 C3           5.5690    -0.5640     1.9060 c3         1 M8Y       0.041700
      8 N3          -2.2010    -1.0030     1.4050 ns         1 M8Y      -0.388300
      9 C4           5.6620    -1.4960     3.1530 c3         1 M8Y      -0.065700
     10 N4          -4.0060    -1.7970    -1.6510 ns         1 M8Y      -0.487900
     11 O4          -5.6490    -3.2960    -1.0770 o          1 M8Y      -0.555000
     12 C5           7.1130    -1.6380     3.6730 c3         1 M8Y      -0.088600
     13 N5           7.6650    -0.4140     0.5800 ns         1 M8Y      -0.488900
     14 O5          -5.9320    -1.7380    -2.7460 os         1 M8Y      -0.449100
     15 C7           0.8220     0.9050     1.3340 c3         1 M8Y      -0.063400
     16 C8           0.5030    -0.1940     2.3840 c3         1 M8Y      -0.065400
     17 C9          -0.8330     0.0200     3.1360 c3         1 M8Y       0.156800
     18 C10         -3.2840     0.4420     3.0080 c3         1 M8Y       0.189100
     19 C11         -4.5000     0.5750     2.0920 ca         1 M8Y      -0.083300
     20 C12         -2.4720    -0.8700     0.0420 c          1 M8Y       0.611100
     21 C13         -2.9730    -2.1700    -0.6570 c3         1 M8Y       0.051700
     22 C14         -1.8270    -3.0400    -1.2950 c3         1 M8Y      -0.044000
     23 C15         -1.0880    -2.2640    -2.4210 c3         1 M8Y      -0.089433
     24 C16         -0.7890    -3.4460    -0.2130 c3         1 M8Y      -0.089433
     25 C17         -2.4240    -4.3440    -1.8960 c3         1 M8Y      -0.089433
     26 C19         -7.2740    -2.1850    -3.0110 c3         1 M8Y       0.171900
     27 C20         -5.3950    -0.5050     1.9350 ca         1 M8Y      -0.085500
     28 C21         -6.4790    -0.4040     1.0460 ca         1 M8Y      -0.088000
     29 C22         -6.6770     0.7770     0.3140 ca         1 M8Y      -0.009900
     30 C23         -5.7960     1.8600     0.4710 ca         1 M8Y      -0.088000
     31 C24         -4.7100     1.7590     1.3580 ca         1 M8Y      -0.085500
     32 C25          2.3870     1.8470    -0.4750 c3         1 M8Y      -0.058100
     33 C26          3.7620     1.7650    -1.1440 ca         1 M8Y      -0.096300
     34 C27          3.9680     0.9670    -2.2860 ca         1 M8Y      -0.105000
     35 C28          5.2580     0.8260    -2.8280 ca         1 M8Y      -0.109000
     36 C29          6.3580     1.4880    -2.2490 ca         1 M8Y      -0.072300
     37 C30          6.1410     2.3240    -1.1360 ca         1 M8Y      -0.109000
     38 C31          4.8550     2.4590    -0.5890 ca         1 M8Y      -0.105000
     39 C32          7.7530     1.2980    -2.8450 c3         1 M8Y      -0.004900
     40 C33          8.8990     1.4970    -1.8640 c2         1 M8Y      -0.190200
     41 C34          6.4530    -1.0560     0.7210 c          1 M8Y       0.579100
     42 C35          4.7200    -1.0520     4.3010 c3         1 M8Y      -0.088600
     43 C36          9.2700     0.6580    -0.8790 c2         1 M8Y      -0.246200
     44 C37          8.6070    -0.6500    -0.5090 c3         1 M8Y       0.135200
     45 HN1          3.8640    -1.1400     0.7320 hn         1 M8Y       0.338500
     46 HO1          2.5650    -0.4210    -1.0180 ho         1 M8Y       0.455000
     47 H3           5.9230     0.4380     2.1850 h1         1 M8Y       0.081700
     48 HN3         -2.3190    -1.9260     1.8120 hn         1 M8Y       0.302500
     49 H4           5.3340    -2.4960     2.8400 hc         1 M8Y       0.066700
     50 HN4         -3.8310    -1.0110    -2.2640 hn         1 M8Y       0.343500
     51 H5           7.5250    -0.6610     3.9540 hc         1 M8Y       0.037367
     52 H5A          7.1470    -2.2880     4.5560 hc         1 M8Y       0.037367
     53 H5B          7.7660    -2.0840     2.9140 hc         1 M8Y       0.037367
     54 HN5          7.8810     0.3170     1.2460 hn         1 M8Y       0.320500
     55 H7           0.8510     1.8770     1.8430 hc         1 M8Y       0.073200
     56 H7A         -0.0000     0.9620     0.6120 hc         1 M8Y       0.073200
     57 H8           0.4880    -1.1770     1.9000 hc         1 M8Y       0.050700
     58 H8A          1.3070    -0.2310     3.1280 hc         1 M8Y       0.050700
     59 H9          -0.7380     0.9360     3.7340 h1         1 M8Y       0.038200
     60 H9A         -0.9630    -0.8100     3.8440 h1         1 M8Y       0.038200
     61 H10         -3.4850    -0.3420     3.7510 h1         1 M8Y       0.047200
     62 H10A        -3.1600     1.3810     3.5640 h1         1 M8Y       0.047200
     63 H13         -3.4580    -2.7690     0.1260 h1         1 M8Y       0.079700
     64 H15         -0.6120    -1.3550    -2.0340 hc         1 M8Y       0.040700
     65 H15A        -0.3010    -2.8830    -2.8680 hc         1 M8Y       0.040700
     66 H15B        -1.7760    -1.9720    -3.2240 hc         1 M8Y       0.040700
     67 H16         -1.2760    -3.9450     0.6340 hc         1 M8Y       0.040700
     68 H16A        -0.0430    -4.1360    -0.6250 hc         1 M8Y       0.040700
     69 H16B        -0.2470    -2.5730     0.1660 hc         1 M8Y       0.040700
     70 H17         -3.1050    -4.1270    -2.7280 hc         1 M8Y       0.040700
     71 H17A        -1.6320    -4.9970    -2.2830 hc         1 M8Y       0.040700
     72 H17B        -2.9830    -4.9050    -1.1370 hc         1 M8Y       0.040700
     73 H19         -7.2800    -3.2360    -3.3260 h1         1 M8Y       0.047367
     74 H19A        -7.9030    -2.0860    -2.1160 h1         1 M8Y       0.047367
     75 H19B        -7.7240    -1.5850    -3.8110 h1         1 M8Y       0.047367
     76 H20         -5.2390    -1.4280     2.4890 ha         1 M8Y       0.121500
     77 H21         -7.1590    -1.2440     0.9210 ha         1 M8Y       0.131000
     78 H23         -5.9480     2.7740    -0.1000 ha         1 M8Y       0.131000
     79 H24         -4.0180     2.5920     1.4610 ha         1 M8Y       0.121500
     80 H25          1.5910     1.8340    -1.2310 hc         1 M8Y       0.073700
     81 H25A         2.2880     2.8110     0.0400 hc         1 M8Y       0.073700
     82 H27          3.1360     0.4450    -2.7540 ha         1 M8Y       0.121500
     83 H28          5.4030     0.1930    -3.7010 ha         1 M8Y       0.114000
     84 H30          6.9690     2.8620    -0.6800 ha         1 M8Y       0.114000
     85 H31          4.7140     3.0900     0.2860 ha         1 M8Y       0.121500
     86 H32          7.8290     0.2950    -3.2820 hc         1 M8Y       0.058200
     87 H32A         7.8770     1.9870    -3.6900 hc         1 M8Y       0.058200
     88 H33          9.4590     2.4210    -2.0250 ha         1 M8Y       0.174000
     89 H35          3.6700    -1.0790     3.9880 hc         1 M8Y       0.037367
     90 H35A         4.8210    -1.7190     5.1660 hc         1 M8Y       0.037367
     91 H35B         4.9570    -0.0320     4.6270 hc         1 M8Y       0.037367
     92 H36         10.1250     0.9080    -0.2480 ha         1 M8Y       0.177000
     93 H37          9.3610    -1.3770    -0.1760 h1         1 M8Y       0.057200
     94 H37A         8.0830    -1.0740    -1.3750 h1         1 M8Y       0.057200
     95 O6           6.0930    -1.9390    -0.0490 o          1 M8Y      -0.613100
     96 C18         -5.2370    -2.3750    -1.7640 c          1 M8Y       0.638100
     97 Br1         -8.1430     0.9090    -0.9060 br         1 M8Y      -0.106100
     98 O3          -2.3830     0.2040    -0.5480 o          1 M8Y      -0.574100
@<TRIPOS>BOND
     1     1     3 1   
     2     1     4 1   
     3     1    15 1   
     4     1    32 1   
     5     2     4 1   
     6     2     7 1   
     7     2    45 1   
     8     3    46 1   
     9     4     6 2   
    10     5     8 1   
    11     5    17 1   
    12     5    18 1   
    13     7     9 1   
    14     7    41 1   
    15     7    47 1   
    16     8    20 1   
    17     8    48 1   
    18     9    12 1   
    19     9    42 1   
    20     9    49 1   
    21    10    21 1   
    22    10    50 1   
    23    10    96 1   
    24    11    96 2   
    25    12    51 1   
    26    12    52 1   
    27    12    53 1   
    28    13    41 1   
    29    13    44 1   
    30    13    54 1   
    31    14    26 1   
    32    14    96 1   
    33    15    16 1   
    34    15    55 1   
    35    15    56 1   
    36    16    17 1   
    37    16    57 1   
    38    16    58 1   
    39    17    59 1   
    40    17    60 1   
    41    18    19 1   
    42    18    61 1   
    43    18    62 1   
    44    19    27 ar  
    45    19    31 ar  
    46    20    21 1   
    47    20    98 2   
    48    21    22 1   
    49    21    63 1   
    50    22    23 1   
    51    22    24 1   
    52    22    25 1   
    53    23    64 1   
    54    23    65 1   
    55    23    66 1   
    56    24    67 1   
    57    24    68 1   
    58    24    69 1   
    59    25    70 1   
    60    25    71 1   
    61    25    72 1   
    62    26    73 1   
    63    26    74 1   
    64    26    75 1   
    65    27    28 ar  
    66    27    76 1   
    67    28    29 ar  
    68    28    77 1   
    69    29    30 ar  
    70    29    97 1   
    71    30    31 ar  
    72    30    78 1   
    73    31    79 1   
    74    32    33 1   
    75    32    80 1   
    76    32    81 1   
    77    33    34 ar  
    78    33    38 ar  
    79    34    35 ar  
    80    34    82 1   
    81    35    36 ar  
    82    35    83 1   
    83    36    37 ar  
    84    36    39 1   
    85    37    38 ar  
    86    37    84 1   
    87    38    85 1   
    88    39    40 1   
    89    39    86 1   
    90    39    87 1   
    91    40    43 2   
    92    40    88 1   
    93    41    95 2   
    94    42    89 1   
    95    42    90 1   
    96    42    91 1   
    97    43    44 1   
    98    43    92 1   
    99    44    93 1   
   100    44    94 1   
@<TRIPOS>SUBSTRUCTURE
     1 M8Y         1 TEMP              0 ****  ****    0 ROOT
