@<TRIPOS>MOLECULE
M8Z
   63    65     1     0     0
SMALL
No Charge or Current Charge


@<TRIPOS>ATOM
      1 C1           5.0180    -0.8720    -0.7130 c3         1 M8Z       0.067900
      2 C2           5.1350    -2.3880    -1.0450 c3         1 M8Z      -0.085100
      3 C3           5.3770    -0.1120    -1.9320 c1         1 M8Z       0.306400
      4 C4           3.5920    -0.4400    -0.2750 ca         1 M8Z      -0.057300
      5 C5           3.3420     0.9160     0.0410 ca         1 M8Z      -0.113000
      6 C6           2.0700     1.3700     0.4590 ca         1 M8Z      -0.057300
      7 C8           1.2380    -0.9280     0.2200 ca         1 M8Z       0.311000
      8 C9          -1.1560    -1.8730     0.1560 ca         1 M8Z       0.473900
      9 C10         -1.9110    -3.0400     0.3420 ca         1 M8Z      -0.405600
     10 C11         -3.3000    -2.9090     0.1700 ca         1 M8Z       0.209900
     11 C12         -3.0510    -0.6870    -0.3410 ca         1 M8Z       0.446900
     12 C13         -2.8270     1.6720    -1.2890 c6         1 M8Z       0.216800
     13 C14         -3.3340     3.0620    -0.8280 c6         1 M8Z      -0.103400
     14 C15         -4.8540     3.2350    -1.0840 c6         1 M8Z      -0.072400
     15 C16         -5.6650     2.0790    -0.4450 c6         1 M8Z       0.145500
     16 C17         -5.1150     0.7030    -0.9490 c6         1 M8Z       0.179800
     17 C18         -1.2960    -4.3590     0.6920 c          1 M8Z       0.654700
     18 C19          2.5150    -1.3520    -0.1740 ca         1 M8Z      -0.123500
     19 C20          1.8660     2.8740     0.7950 c3         1 M8Z       0.067900
     20 C21          2.1980     3.7340    -0.4570 c3         1 M8Z      -0.085100
     21 C22          0.4190     3.2210     1.2490 c3         1 M8Z      -0.085100
     22 C23          2.7870     3.2310     1.8970 c1         1 M8Z       0.306400
     23 N7           3.5180     3.5360     2.7530 n1         1 M8Z      -0.464000
     24 C7           1.0270     0.4210     0.5530 ca         1 M8Z      -0.123500
     25 N            5.6870     0.4900    -2.8810 n1         1 M8Z      -0.464000
     26 C            6.0310    -0.5450     0.4190 c3         1 M8Z      -0.085100
     27 N1           0.2190    -1.8830     0.3000 nu         1 M8Z      -0.938900
     28 N3          -1.7180    -0.7130    -0.1950 nb         1 M8Z      -0.341000
     29 N2          -3.8700    -1.7400    -0.1650 nb         1 M8Z      -0.293000
     30 O           -0.0920    -4.5400     0.7530 o          1 M8Z      -0.658100
     31 N6          -2.1220    -5.3920     0.9310 nt         1 M8Z      -0.592000
     32 N4          -3.6380     0.5620    -0.6850 nh         1 M8Z      -0.762300
     33 H1           6.1540    -2.6440    -1.3590 hc         1 M8Z       0.048867
     34 H2           4.8990    -3.0020    -0.1670 hc         1 M8Z       0.048867
     35 H3           4.4570    -2.6720    -1.8600 hc         1 M8Z       0.048867
     36 H4           4.1570     1.6310    -0.0340 ha         1 M8Z       0.124000
     37 H5          -3.9840    -3.7470     0.2910 h4         1 M8Z       0.009100
     38 H6          -2.8810     1.6150    -2.3870 h1         1 M8Z       0.065700
     39 H7          -1.7630     1.6030    -1.0220 h1         1 M8Z       0.065700
     40 H8          -3.1140     3.1940     0.2400 hc         1 M8Z       0.051700
     41 H9          -2.7750     3.8480    -1.3540 hc         1 M8Z       0.051700
     42 H10         -5.1960     4.2040    -0.6950 hc         1 M8Z       0.052200
     43 H11         -5.0420     3.2550    -2.1670 hc         1 M8Z       0.052200
     44 H12         -6.7200     2.1760    -0.7470 h1         1 M8Z       0.066700
     45 H13         -5.6990    -0.0890    -0.4590 h1         1 M8Z       0.069700
     46 H14         -5.3090     0.6150    -2.0290 h1         1 M8Z       0.069700
     47 H15          2.6460    -2.4030    -0.4090 ha         1 M8Z       0.133500
     48 H16          1.5540     3.4490    -1.2980 hc         1 M8Z       0.048867
     49 H17          2.0380     4.8010    -0.2570 hc         1 M8Z       0.048867
     50 H18          3.2400     3.6110    -0.7750 hc         1 M8Z       0.048867
     51 H19          0.1370     2.6640     2.1510 hc         1 M8Z       0.048867
     52 H20          0.3250     4.2900     1.4800 hc         1 M8Z       0.048867
     53 H21         -0.3070     2.9930     0.4580 hc         1 M8Z       0.048867
     54 H22          0.0460     0.7160     0.9000 ha         1 M8Z       0.133500
     55 H23          7.0450    -0.8630     0.1460 hc         1 M8Z       0.048867
     56 H24          6.0700     0.5290     0.6370 hc         1 M8Z       0.048867
     57 H25          5.7540    -1.0650     1.3440 hc         1 M8Z       0.048867
     58 H26          0.5450    -2.8490     0.4250 hn         1 M8Z       0.553000
     59 H27         -3.1200    -5.2670     0.8850 hn         1 M8Z       0.316500
     60 H28         -1.7250    -6.2900     1.1630 hn         1 M8Z       0.316500
     61 N5          -5.6100     2.1780     1.0380 n8         1 M8Z      -0.995200
     62 H29         -6.1660     1.4150     1.4390 hn         1 M8Z       0.400000
     63 H30         -4.6510     1.9240     1.3040 hn         1 M8Z       0.400000
@<TRIPOS>BOND
     1     1     2 1   
     2     1     3 1   
     3     1     4 1   
     4     1    26 1   
     5     2    33 1   
     6     2    34 1   
     7     2    35 1   
     8     3    25 3   
     9     4     5 ar  
    10     4    18 ar  
    11     5     6 ar  
    12     5    36 1   
    13     6    19 1   
    14     6    24 ar  
    15     7    18 ar  
    16     7    24 ar  
    17     7    27 1   
    18     8     9 ar  
    19     8    27 1   
    20     8    28 ar  
    21     9    10 ar  
    22     9    17 1   
    23    10    29 ar  
    24    10    37 1   
    25    11    28 ar  
    26    11    29 ar  
    27    11    32 1   
    28    12    13 1   
    29    12    32 1   
    30    12    38 1   
    31    12    39 1   
    32    13    14 1   
    33    13    40 1   
    34    13    41 1   
    35    14    15 1   
    36    14    42 1   
    37    14    43 1   
    38    15    16 1   
    39    15    44 1   
    40    15    61 1   
    41    16    32 1   
    42    16    45 1   
    43    16    46 1   
    44    17    30 2   
    45    17    31 1   
    46    18    47 1   
    47    19    20 1   
    48    19    21 1   
    49    19    22 1   
    50    20    48 1   
    51    20    49 1   
    52    20    50 1   
    53    21    51 1   
    54    21    52 1   
    55    21    53 1   
    56    22    23 3   
    57    24    54 1   
    58    26    55 1   
    59    26    56 1   
    60    26    57 1   
    61    27    58 1   
    62    31    59 1   
    63    31    60 1   
    64    61    62 1   
    65    61    63 1   
@<TRIPOS>SUBSTRUCTURE
     1 M8Z         1 TEMP              0 ****  ****    0 ROOT
