@<TRIPOS>MOLECULE
M8Z
   63    65     1     0     0
SMALL
abcg2


@<TRIPOS>ATOM
      1 C1           4.9420    -0.8980    -0.4290 c3         1 M8Z       0.067900
      2 C2           5.0440    -2.3880    -0.7720 c3         1 M8Z      -0.085100
      3 C3           5.5050    -0.1460    -1.5580 c1         1 M8Z       0.306400
      4 C4           3.5120    -0.4100    -0.2090 ca         1 M8Z      -0.057300
      5 C5           3.2740     0.9510    -0.0570 ca         1 M8Z      -0.113000
      6 C6           1.9950     1.4260     0.1980 ca         1 M8Z      -0.057300
      7 C8           1.1540    -0.8290     0.1300 ca         1 M8Z       0.311000
      8 C9          -1.1600    -1.7500     0.0650 ca         1 M8Z       0.473900
      9 C10         -1.9520    -2.9200     0.2760 ca         1 M8Z      -0.405600
     10 C11         -3.3150    -2.7140     0.1100 ca         1 M8Z       0.209900
     11 C12         -3.0280    -0.5700    -0.5220 ca         1 M8Z       0.446900
     12 C13         -2.7670     1.7460    -1.3060 c6         1 M8Z       0.216800
     13 C14         -3.1350     2.8860    -0.3640 c6         1 M8Z      -0.103400
     14 C15         -4.6400     3.1430    -0.3870 c6         1 M8Z      -0.072400
     15 C16         -5.4420     1.8660    -0.1360 c6         1 M8Z       0.145500
     16 C17         -4.9890     0.7840    -1.1270 c6         1 M8Z       0.179800
     17 C18         -1.3720    -4.2220     0.6490 c          1 M8Z       0.654700
     18 C19          2.4480    -1.2910    -0.1200 ca         1 M8Z      -0.123500
     19 C20          1.7920     2.9330     0.3490 c3         1 M8Z       0.067900
     20 C21          2.0820     3.6380    -0.9880 c3         1 M8Z      -0.085100
     21 C22          0.3930     3.3260     0.8320 c3         1 M8Z      -0.085100
     22 C23          2.7520     3.4170     1.3510 c1         1 M8Z       0.306400
     23 N7           3.4940     3.8120     2.1360 n1         1 M8Z      -0.464000
     24 C7           0.9310     0.5380     0.2940 ca         1 M8Z      -0.123500
     25 N            5.9570     0.4340    -2.4430 n1         1 M8Z      -0.464000
     26 C            5.7870    -0.6020     0.8230 c3         1 M8Z      -0.085100
     27 N1           0.1730    -1.8080     0.2670 nu         1 M8Z      -0.938900
     28 N3          -1.7070    -0.6140    -0.3350 nb         1 M8Z      -0.341000
     29 N2          -3.8720    -1.5860    -0.2680 nb         1 M8Z      -0.293000
     30 O           -0.1680    -4.3470     0.9060 o          1 M8Z      -0.658100
     31 N6          -2.1910    -5.2830     0.7080 nt         1 M8Z      -0.592000
     32 N4          -3.5580     0.5660    -1.0080 nh         1 M8Z      -0.762300
     33 H1           6.0850    -2.6550    -0.9550 hc         1 M8Z       0.048867
     34 H2           4.6910    -2.9880     0.0650 hc         1 M8Z       0.048867
     35 H3           4.4650    -2.6470    -1.6580 hc         1 M8Z       0.048867
     36 H4           4.1010     1.6500    -0.1270 ha         1 M8Z       0.124000
     37 H5          -4.0190    -3.5160     0.3080 h4         1 M8Z       0.009100
     38 H6          -2.9800     2.0420    -2.3400 h1         1 M8Z       0.065700
     39 H7          -1.7110     1.4990    -1.2500 h1         1 M8Z       0.065700
     40 H8          -2.7930     2.6500     0.6480 hc         1 M8Z       0.051700
     41 H9          -2.5990     3.7880    -0.6670 hc         1 M8Z       0.051700
     42 H10         -4.9110     3.9030     0.3480 hc         1 M8Z       0.052200
     43 H11         -4.9140     3.5380    -1.3710 hc         1 M8Z       0.052200
     44 H12         -6.4950     2.0710    -0.3470 h1         1 M8Z       0.066700
     45 H13         -5.5200    -0.1460    -0.9530 h1         1 M8Z       0.069700
     46 H14         -5.2030     1.1090    -2.1510 h1         1 M8Z       0.069700
     47 H15          2.6020    -2.3550    -0.2440 ha         1 M8Z       0.133500
     48 H16          1.3810     3.2720    -1.7380 hc         1 M8Z       0.048867
     49 H17          1.9520     4.7150    -0.8910 hc         1 M8Z       0.048867
     50 H18          3.0930     3.4420    -1.3440 hc         1 M8Z       0.048867
     51 H19          0.1170     2.8240     1.7580 hc         1 M8Z       0.048867
     52 H20          0.3410     4.4020     0.9940 hc         1 M8Z       0.048867
     53 H21         -0.3420     3.0780     0.0670 hc         1 M8Z       0.048867
     54 H22         -0.0640     0.8840     0.5160 ha         1 M8Z       0.133500
     55 H23          6.8180    -0.9230     0.6760 hc         1 M8Z       0.048867
     56 H24          5.7870     0.4590     1.0700 hc         1 M8Z       0.048867
     57 H25          5.3710    -1.1500     1.6680 hc         1 M8Z       0.048867
     58 H26          0.4870    -2.7450     0.5220 hn         1 M8Z       0.553000
     59 H27         -3.1420    -5.2740     0.3860 hn         1 M8Z       0.316500
     60 H28         -1.7980    -6.1850     0.9210 hn         1 M8Z       0.316500
     61 N5          -5.3470     1.4700     1.2610 n8         1 M8Z      -0.995200
     62 H29         -5.9030     0.6390     1.4200 hn         1 M8Z       0.400000
     63 H30         -4.3960     1.2120     1.4950 hn         1 M8Z       0.400000
@<TRIPOS>BOND
     1     1     2 1   
     2     1     3 1   
     3     1     4 1   
     4     1    26 1   
     5     2    33 1   
     6     2    34 1   
     7     2    35 1   
     8     3    25 3   
     9     4     5 ar  
    10     4    18 ar  
    11     5     6 ar  
    12     5    36 1   
    13     6    19 1   
    14     6    24 ar  
    15     7    18 ar  
    16     7    24 ar  
    17     7    27 1   
    18     8     9 ar  
    19     8    27 1   
    20     8    28 ar  
    21     9    10 ar  
    22     9    17 1   
    23    10    29 ar  
    24    10    37 1   
    25    11    28 ar  
    26    11    29 ar  
    27    11    32 1   
    28    12    13 1   
    29    12    32 1   
    30    12    38 1   
    31    12    39 1   
    32    13    14 1   
    33    13    40 1   
    34    13    41 1   
    35    14    15 1   
    36    14    42 1   
    37    14    43 1   
    38    15    16 1   
    39    15    44 1   
    40    15    61 1   
    41    16    32 1   
    42    16    45 1   
    43    16    46 1   
    44    17    30 2   
    45    17    31 1   
    46    18    47 1   
    47    19    20 1   
    48    19    21 1   
    49    19    22 1   
    50    20    48 1   
    51    20    49 1   
    52    20    50 1   
    53    21    51 1   
    54    21    52 1   
    55    21    53 1   
    56    22    23 3   
    57    24    54 1   
    58    26    55 1   
    59    26    56 1   
    60    26    57 1   
    61    27    58 1   
    62    31    59 1   
    63    31    60 1   
    64    61    62 1   
    65    61    63 1   
@<TRIPOS>SUBSTRUCTURE
     1 M8Z         1 TEMP              0 ****  ****    0 ROOT
