@<TRIPOS>MOLECULE
M90
   95    98     1     0     0
SMALL
No Charge or Current Charge


@<TRIPOS>ATOM
      1 C1          -8.7710    -1.2240     1.0310 c6         1 M90       0.164500
      2 N1          -9.9820    -1.5830     1.7850 n8         1 M90      -0.994200
      3 O1          -4.5040    -1.9570    -1.7190 o          1 M90      -0.541000
      4 C2          -8.4380    -2.3070    -0.0060 c6         1 M90      -0.103400
      5 N2          -6.0010    -1.4980    -0.0090 n          1 M90      -0.392800
      6 O2          -3.8110    -0.7750     0.1240 os         1 M90      -0.438100
      7 C3          -7.5730    -1.0620     1.9780 c6         1 M90      -0.103400
      8 N3          -0.1170    -0.5470     0.0130 ns         1 M90      -0.487900
      9 C4          -7.1770    -1.9360    -0.8180 c6         1 M90       0.106000
     10 N4           3.2460     0.6030     1.1090 ns         1 M90      -0.498900
     11 C5          -6.2900    -0.6740     1.2070 c6         1 M90       0.106000
     12 N5           7.5740    -3.3330    -4.2260 nb         1 M90      -0.689000
     13 O5           6.0250    -0.1280     1.6100 oh         1 M90      -0.638000
     14 C6          -4.7370    -1.4480    -0.6310 c          1 M90       0.651100
     15 C7          -2.5400    -0.3980    -0.4760 c3         1 M90       0.112300
     16 C8          -1.3830    -0.4490     0.5620 c          1 M90       0.596100
     17 C9          -2.6980     1.0390    -1.0480 c3         1 M90      -0.046100
     18 C10         -3.8180     1.1810    -2.0750 ca         1 M90      -0.089300
     19 C11         -3.6150     0.7800    -3.4090 ca         1 M90      -0.096500
     20 C12         -5.0710     1.7000    -1.6920 ca         1 M90      -0.096500
     21 C13         -4.6550     0.8900    -4.3490 ca         1 M90      -0.109000
     22 C14         -6.1120     1.8070    -2.6300 ca         1 M90      -0.109000
     23 C15         -5.9040     1.4020    -3.9590 ca         1 M90      -0.105000
     24 C16          1.1430    -0.6590     0.7880 c3         1 M90       0.049700
     25 C17          1.7140    -2.0980     0.7240 c3         1 M90       0.038600
     26 C18          1.5210    -4.8920     1.1670 c3         1 M90       0.032900
     27 C19          2.1880     0.3570     0.2580 c          1 M90       0.576100
     28 C20          4.3630     1.5210     0.8330 c3         1 M90       0.074700
     29 C21          4.5290     2.5390     1.9940 c3         1 M90      -0.086400
     30 C22          3.2640     3.3810     2.3640 c6         1 M90      -0.062700
     31 C23          2.7490     4.2460     1.1750 c6         1 M90      -0.069900
     32 C24          3.5480     4.2840     3.5980 c6         1 M90      -0.069900
     33 C25          1.5070     5.0820     1.5740 c6         1 M90      -0.075400
     34 C26          2.3040     5.1170     3.9960 c6         1 M90      -0.075400
     35 C27          1.7980     5.9690     2.8080 c6         1 M90      -0.072400
     36 C28          5.6760     0.7440     0.5140 c3         1 M90       0.157300
     37 C29          5.5710    -0.0880    -0.7900 c3         1 M90       0.127600
     38 C30          7.0320    -1.6140    -2.0600 ca         1 M90       0.179100
     39 C31          6.0630    -1.8510    -3.0510 ca         1 M90      -0.231000
     40 C32          6.3780    -2.7140    -4.1100 ca         1 M90       0.363900
     41 C33          8.5010    -3.1000    -3.2690 ca         1 M90       0.363900
     42 C34          8.2690    -2.2530    -2.1780 ca         1 M90      -0.231000
     43 H1          -8.9710    -0.2700     0.5200 h1         1 M90       0.009700
     44 HN1        -10.2190    -0.8080     2.4160 hn         1 M90       0.394000
     45 HN1A       -10.7770    -1.6110     1.1360 hn         1 M90       0.394000
     46 H2          -8.2730    -3.2690     0.4990 hc         1 M90       0.059700
     47 H2A         -9.2830    -2.4540    -0.6920 hc         1 M90       0.059700
     48 H3          -7.7850    -0.2990     2.7390 hc         1 M90       0.059700
     49 H3A         -7.3960    -2.0020     2.5190 hc         1 M90       0.059700
     50 HN3         -0.0500    -0.5180    -0.9990 hn         1 M90       0.335500
     51 H4          -6.8970    -2.8020    -1.4350 h1         1 M90       0.061200
     52 H4A         -7.4320    -1.1210    -1.5110 h1         1 M90       0.061200
     53 HN4          3.2640     0.0940     1.9850 hn         1 M90       0.323500
     54 H5          -5.4460    -0.7330     1.9090 h1         1 M90       0.061200
     55 H5A         -6.3730     0.3770     0.8930 h1         1 M90       0.061200
     56 HO5          6.7130    -0.7380     1.2630 ho         1 M90       0.439000
     57 H7          -2.2590    -1.0870    -1.2830 h1         1 M90       0.089700
     58 H9          -2.8620     1.7320    -0.2140 hc         1 M90       0.068700
     59 H9A         -1.7470     1.3460    -1.5030 hc         1 M90       0.068700
     60 H11         -2.6530     0.3750    -3.7180 ha         1 M90       0.111500
     61 H12         -5.2420     2.0130    -0.6640 ha         1 M90       0.111500
     62 H13         -4.4930     0.5750    -5.3770 ha         1 M90       0.112000
     63 H14         -7.0780     2.2030    -2.3270 ha         1 M90       0.112000
     64 H15         -6.7090     1.4840    -4.6860 ha         1 M90       0.111000
     65 H16          0.9520    -0.4010     1.8370 h1         1 M90       0.092700
     66 H17          2.6580    -2.1460     1.2830 h1         1 M90       0.072700
     67 H17A         1.9250    -2.3620    -0.3200 h1         1 M90       0.072700
     68 H18          2.4780    -4.8270     1.7020 h1         1 M90       0.063700
     69 H18A         0.9590    -5.7560     1.5420 h1         1 M90       0.063700
     70 H18B         1.7160    -5.0290     0.0960 h1         1 M90       0.063700
     71 H20          4.1230     2.1020    -0.0680 h1         1 M90       0.086700
     72 H21          4.8600     1.9920     2.8850 hc         1 M90       0.054700
     73 H21A         5.3520     3.2190     1.7390 hc         1 M90       0.054700
     74 H22          2.4750     2.6680     2.6430 hc         1 M90       0.058700
     75 H23          3.5470     4.9150     0.8260 hc         1 M90       0.037450
     76 H23A         2.4820     3.6070     0.3230 hc         1 M90       0.037450
     77 H24          3.8590     3.6660     4.4510 hc         1 M90       0.037450
     78 H24A         4.3870     4.9600     3.3820 hc         1 M90       0.037450
     79 H25          1.1950     5.7110     0.7290 hc         1 M90       0.042700
     80 H25A         0.6640     4.4110     1.7910 hc         1 M90       0.042700
     81 H26          1.5040     4.4470     4.3390 hc         1 M90       0.042700
     82 H26A         2.5490     5.7700     4.8450 hc         1 M90       0.042700
     83 H27          2.5500     6.7280     2.5500 hc         1 M90       0.036200
     84 H27A         0.8900     6.5140     3.0990 hc         1 M90       0.036200
     85 H28          6.4730     1.4850     0.3580 h1         1 M90       0.093700
     86 H29          5.3690     0.5850    -1.6340 h1         1 M90       0.049200
     87 H29A         4.7410    -0.8010    -0.7080 h1         1 M90       0.049200
     88 H31          5.0820    -1.3900    -3.0230 ha         1 M90       0.133000
     89 H32          5.6480    -2.9190    -4.8940 h4         1 M90       0.017100
     90 H33          9.4570    -3.6100    -3.3840 h4         1 M90       0.017100
     91 H34          9.0450    -2.0970    -1.4350 ha         1 M90       0.133000
     92 O3          -1.5600    -0.4420     1.7750 o          1 M90      -0.583100
     93 S1           0.5430    -3.3460     1.4360 ss         1 M90      -0.401000
     94 O4           2.0950     0.9050    -0.8340 o          1 M90      -0.608100
     95 O6           6.8180    -0.7840    -0.9810 os         1 M90      -0.330100
@<TRIPOS>BOND
     1     1     2 1   
     2     1     4 1   
     3     1     7 1   
     4     1    43 1   
     5     2    44 1   
     6     2    45 1   
     7     3    14 2   
     8     4     9 1   
     9     4    46 1   
    10     4    47 1   
    11     5     9 1   
    12     5    11 1   
    13     5    14 1   
    14     6    14 1   
    15     6    15 1   
    16     7    11 1   
    17     7    48 1   
    18     7    49 1   
    19     8    16 1   
    20     8    24 1   
    21     8    50 1   
    22     9    51 1   
    23     9    52 1   
    24    10    27 1   
    25    10    28 1   
    26    10    53 1   
    27    11    54 1   
    28    11    55 1   
    29    12    40 ar  
    30    12    41 ar  
    31    13    36 1   
    32    13    56 1   
    33    15    16 1   
    34    15    17 1   
    35    15    57 1   
    36    16    92 2   
    37    17    18 1   
    38    17    58 1   
    39    17    59 1   
    40    18    19 ar  
    41    18    20 ar  
    42    19    21 ar  
    43    19    60 1   
    44    20    22 ar  
    45    20    61 1   
    46    21    23 ar  
    47    21    62 1   
    48    22    23 ar  
    49    22    63 1   
    50    23    64 1   
    51    24    25 1   
    52    24    27 1   
    53    24    65 1   
    54    25    66 1   
    55    25    67 1   
    56    25    93 1   
    57    26    68 1   
    58    26    69 1   
    59    26    70 1   
    60    26    93 1   
    61    27    94 2   
    62    28    29 1   
    63    28    36 1   
    64    28    71 1   
    65    29    30 1   
    66    29    72 1   
    67    29    73 1   
    68    30    31 1   
    69    30    32 1   
    70    30    74 1   
    71    31    33 1   
    72    31    75 1   
    73    31    76 1   
    74    32    34 1   
    75    32    77 1   
    76    32    78 1   
    77    33    35 1   
    78    33    79 1   
    79    33    80 1   
    80    34    35 1   
    81    34    81 1   
    82    34    82 1   
    83    35    83 1   
    84    35    84 1   
    85    36    37 1   
    86    36    85 1   
    87    37    86 1   
    88    37    87 1   
    89    37    95 1   
    90    38    39 ar  
    91    38    42 ar  
    92    38    95 1   
    93    39    40 ar  
    94    39    88 1   
    95    40    89 1   
    96    41    42 ar  
    97    41    90 1   
    98    42    91 1   
@<TRIPOS>SUBSTRUCTURE
     1 M90         1 TEMP              0 ****  ****    0 ROOT
