@<TRIPOS>MOLECULE
M90
   95    98     1     0     0
SMALL
bcc


@<TRIPOS>ATOM
      1 C1          -7.0820    -0.6560     2.6180 c6         1 M90       0.164500
      2 N1          -7.2550    -1.4080     3.8500 n8         1 M90      -0.883800
      3 O1          -4.5780    -1.4630    -1.3520 o          1 M90      -0.590000
      4 C2          -7.1350    -1.5970     1.4180 c6         1 M90      -0.103400
      5 N2          -5.5870    -0.1480     0.2040 n          1 M90      -0.459800
      6 O2          -3.4060     0.0650    -0.1840 os         1 M90      -0.414900
      7 C3          -5.7470     0.0820     2.6320 c6         1 M90      -0.103400
      8 N3          -0.2360    -1.3960    -0.4330 ns         1 M90      -0.554900
      9 C4          -6.8610    -0.8420     0.1240 c6         1 M90       0.106000
     10 N4           2.6290     0.0480     0.9580 ns         1 M90      -0.565900
     11 C5          -5.5090     0.7960     1.3080 c6         1 M90       0.106000
     12 N5           8.5940    -2.7820    -3.0300 nb         1 M90      -0.689000
     13 O5           5.2950     0.0660     2.1440 oh         1 M90      -0.575800
     14 C6          -4.5340    -0.5880    -0.5100 c          1 M90       0.767100
     15 C7          -2.2390    -0.1560    -0.9460 c3         1 M90       0.089100
     16 C8          -1.1120    -0.4820     0.0230 c          1 M90       0.663100
     17 C9          -1.8910     1.1270    -1.7080 c3         1 M90      -0.046100
     18 C10         -2.9970     1.5200    -2.6430 ca         1 M90      -0.089300
     19 C11         -3.0650     0.9900    -3.9290 ca         1 M90      -0.114500
     20 C12         -4.0030     2.3870    -2.2230 ca         1 M90      -0.114500
     21 C13         -4.1130     1.3180    -4.7780 ca         1 M90      -0.127000
     22 C14         -5.0540     2.7160    -3.0680 ca         1 M90      -0.127000
     23 C15         -5.1120     2.1820    -4.3480 ca         1 M90      -0.123000
     24 C16          1.0220    -1.6240     0.2330 c3         1 M90       0.049700
     25 C17          1.6430    -2.9320    -0.2360 c3         1 M90      -0.009300
     26 C18          1.5910    -5.6830    -0.3350 c3         1 M90      -0.015000
     27 C19          1.9820    -0.4750    -0.0940 c          1 M90       0.643100
     28 C20          3.5300     1.1850     0.8670 c3         1 M90       0.074700
     29 C21          3.2070     2.2170     1.9430 c3         1 M90      -0.086400
     30 C22          1.7600     2.7080     1.9700 c6         1 M90      -0.062700
     31 C23          1.2770     3.2480     0.6250 c6         1 M90      -0.069900
     32 C24          1.6040     3.7740     3.0570 c6         1 M90      -0.069900
     33 C25         -0.1500     3.7840     0.7090 c6         1 M90      -0.075400
     34 C26          0.1790     4.3090     3.1420 c6         1 M90      -0.075400
     35 C27         -0.2900     4.8450     1.7940 c6         1 M90      -0.072400
     36 C28          4.9960     0.7290     0.9410 c3         1 M90       0.134100
     37 C29          5.3580    -0.1130    -0.2720 c3         1 M90       0.104400
     38 C30          7.2890    -1.1650    -1.1530 ca         1 M90       0.179100
     39 C31          6.5960    -1.7150    -2.2290 ca         1 M90      -0.314300
     40 C32          7.3010    -2.5080    -3.1240 ca         1 M90       0.429200
     41 C33          9.2430    -2.2460    -1.9970 ca         1 M90       0.429200
     42 C34          8.6530    -1.4430    -1.0420 ca         1 M90      -0.314300
     43 H1          -7.8700     0.1030     2.4710 h1         1 M90       0.009700
     44 HN1         -7.2590    -0.7710     4.6380 hn         1 M90       0.338800
     45 HN1A        -8.1700    -1.8440     3.8510 hn         1 M90       0.338800
     46 H2          -6.3900    -2.3880     1.5460 hc         1 M90       0.059700
     47 H2A         -8.1160    -2.0780     1.3570 hc         1 M90       0.059700
     48 H3          -5.7260     0.8140     3.4450 hc         1 M90       0.059700
     49 H3A         -4.9380    -0.6330     2.8150 hc         1 M90       0.059700
     50 HN3         -0.3600    -1.7770    -1.3590 hn         1 M90       0.335500
     51 H4          -6.8650    -1.5110    -0.7320 h1         1 M90       0.061200
     52 H4A         -7.6450    -0.0960    -0.0440 h1         1 M90       0.061200
     53 HN4          2.3460    -0.2510     1.8790 hn         1 M90       0.323500
     54 H5          -4.5540     1.3110     1.3060 h1         1 M90       0.061200
     55 H5A         -6.2830     1.5540     1.1550 h1         1 M90       0.061200
     56 HO5          4.7960    -0.7580     2.1760 ho         1 M90       0.400000
     57 H7          -2.3890    -0.9730    -1.6550 h1         1 M90       0.089700
     58 H9          -1.7030     1.9250    -0.9860 hc         1 M90       0.068700
     59 H9A         -0.9610     0.9600    -2.2580 hc         1 M90       0.068700
     60 H11         -2.2870     0.3170    -4.2720 ha         1 M90       0.129500
     61 H12         -3.9610     2.8120    -1.2280 ha         1 M90       0.129500
     62 H13         -4.1480     0.9020    -5.7760 ha         1 M90       0.130000
     63 H14         -5.8270     3.3930    -2.7270 ha         1 M90       0.130000
     64 H15         -5.9280     2.4410    -5.0100 ha         1 M90       0.129000
     65 H16          0.8420    -1.6840     1.3080 h1         1 M90       0.092700
     66 H17          2.5720    -3.1040     0.3100 h1         1 M90       0.072700
     67 H17A         1.8780    -2.8880    -1.3020 h1         1 M90       0.072700
     68 H18          2.4500    -5.7270     0.3340 h1         1 M90       0.063700
     69 H18A         1.0140    -6.6000    -0.2250 h1         1 M90       0.063700
     70 H18B         1.9360    -5.6120    -1.3650 h1         1 M90       0.063700
     71 H20          3.3800     1.6380    -0.1150 h1         1 M90       0.086700
     72 H21          3.4640     1.8120     2.9280 hc         1 M90       0.054700
     73 H21A         3.8740     3.0710     1.7850 hc         1 M90       0.054700
     74 H22          1.1070     1.8660     2.2350 hc         1 M90       0.058700
     75 H23          1.9490     4.0500     0.2930 hc         1 M90       0.037450
     76 H23A         1.3230     2.4690    -0.1400 hc         1 M90       0.037450
     77 H24          1.9080     3.3630     4.0240 hc         1 M90       0.037450
     78 H24A         2.2910     4.6020     2.8460 hc         1 M90       0.037450
     79 H25         -0.4490     4.1920    -0.2610 hc         1 M90       0.042700
     80 H25A        -0.8310     2.9520     0.9210 hc         1 M90       0.042700
     81 H26         -0.4890     3.5040     3.4660 hc         1 M90       0.042700
     82 H26A         0.1160     5.0900     3.9050 hc         1 M90       0.042700
     83 H27          0.3080     5.7210     1.5220 hc         1 M90       0.036200
     84 H27A        -1.3270     5.1860     1.8600 hc         1 M90       0.036200
     85 H28          5.6170     1.6300     0.9280 h1         1 M90       0.093700
     86 H29          5.1110     0.4280    -1.1900 h1         1 M90       0.049200
     87 H29A         4.7900    -1.0520    -0.2710 h1         1 M90       0.049200
     88 H31          5.5420    -1.5450    -2.3960 ha         1 M90       0.151000
     89 H32          6.7730    -2.9410    -3.9670 h4         1 M90       0.017100
     90 H33         10.3020    -2.4700    -1.9210 h4         1 M90       0.017100
     91 H34          9.2360    -1.0370    -0.2260 ha         1 M90       0.151000
     92 O3          -0.9930     0.0820     1.0940 o          1 M90      -0.583100
     93 S1           0.5010    -4.3060     0.0860 ss         1 M90      -0.305200
     94 O4           2.1400    -0.1150    -1.2480 o          1 M90      -0.608100
     95 O6           6.7480    -0.3870    -0.2130 os         1 M90      -0.306900
@<TRIPOS>BOND
     1     1     2 1   
     2     1     4 1   
     3     1     7 1   
     4     1    43 1   
     5     2    44 1   
     6     2    45 1   
     7     3    14 2   
     8     4     9 1   
     9     4    46 1   
    10     4    47 1   
    11     5     9 1   
    12     5    11 1   
    13     5    14 1   
    14     6    14 1   
    15     6    15 1   
    16     7    11 1   
    17     7    48 1   
    18     7    49 1   
    19     8    16 1   
    20     8    24 1   
    21     8    50 1   
    22     9    51 1   
    23     9    52 1   
    24    10    27 1   
    25    10    28 1   
    26    10    53 1   
    27    11    54 1   
    28    11    55 1   
    29    12    40 ar  
    30    12    41 ar  
    31    13    36 1   
    32    13    56 1   
    33    15    16 1   
    34    15    17 1   
    35    15    57 1   
    36    16    92 2   
    37    17    18 1   
    38    17    58 1   
    39    17    59 1   
    40    18    19 ar  
    41    18    20 ar  
    42    19    21 ar  
    43    19    60 1   
    44    20    22 ar  
    45    20    61 1   
    46    21    23 ar  
    47    21    62 1   
    48    22    23 ar  
    49    22    63 1   
    50    23    64 1   
    51    24    25 1   
    52    24    27 1   
    53    24    65 1   
    54    25    66 1   
    55    25    67 1   
    56    25    93 1   
    57    26    68 1   
    58    26    69 1   
    59    26    70 1   
    60    26    93 1   
    61    27    94 2   
    62    28    29 1   
    63    28    36 1   
    64    28    71 1   
    65    29    30 1   
    66    29    72 1   
    67    29    73 1   
    68    30    31 1   
    69    30    32 1   
    70    30    74 1   
    71    31    33 1   
    72    31    75 1   
    73    31    76 1   
    74    32    34 1   
    75    32    77 1   
    76    32    78 1   
    77    33    35 1   
    78    33    79 1   
    79    33    80 1   
    80    34    35 1   
    81    34    81 1   
    82    34    82 1   
    83    35    83 1   
    84    35    84 1   
    85    36    37 1   
    86    36    85 1   
    87    37    86 1   
    88    37    87 1   
    89    37    95 1   
    90    38    39 ar  
    91    38    42 ar  
    92    38    95 1   
    93    39    40 ar  
    94    39    88 1   
    95    40    89 1   
    96    41    42 ar  
    97    41    90 1   
    98    42    91 1   
@<TRIPOS>SUBSTRUCTURE
     1 M90         1 TEMP              0 ****  ****    0 ROOT
