@<TRIPOS>MOLECULE
M91
   95    98     1     0     0
SMALL
abcg2


@<TRIPOS>ATOM
      1 C1          -8.3400    -1.9590     1.5910 c6         1 M91       0.164500
      2 N1          -8.7410    -3.2340     2.1660 n8         1 M91      -0.993200
      3 O1          -5.2320    -0.4490    -1.8340 o          1 M91      -0.545000
      4 C2          -8.1910    -2.0910     0.0800 c6         1 M91      -0.099400
      5 N2          -6.4330    -0.3920     0.0940 n          1 M91      -0.398800
      6 O2          -4.2470     0.0190     0.1370 os         1 M91      -0.435100
      7 C3          -7.0170    -1.5020     2.1940 c6         1 M91      -0.099400
      8 N3          -0.7820    -0.3980    -0.5130 ns         1 M91      -0.500900
      9 C4          -7.6800    -0.7940    -0.5320 c6         1 M91       0.110000
     10 N4           2.5940     0.1450     0.4630 ns         1 M91      -0.503900
     11 C5          -6.5280    -0.2180     1.5350 c6         1 M91       0.110000
     12 N5           5.8010    -1.9800    -1.3210 n          1 M91      -0.261000
     13 O5           5.1550    -0.9040     1.2390 oh         1 M91      -0.663000
     14 C6          -5.3080    -0.2840    -0.6320 c          1 M91       0.656100
     15 C7          -3.0420     0.4040    -0.4840 c3         1 M91       0.110300
     16 C8          -1.9100    -0.3400     0.2160 c          1 M91       0.603100
     17 C9          -2.8500     1.9170    -0.3120 c3         1 M91      -0.047100
     18 C10         -4.0060     2.6870    -0.8840 ca         1 M91      -0.088300
     19 C11         -5.0850     3.0500    -0.0830 ca         1 M91      -0.095500
     20 C12         -4.0370     3.0150    -2.2370 ca         1 M91      -0.095500
     21 C13         -6.1710     3.7290    -0.6210 ca         1 M91      -0.109500
     22 C14         -5.1190     3.6960    -2.7780 ca         1 M91      -0.109500
     23 C15         -6.1910     4.0540    -1.9700 ca         1 M91      -0.106000
     24 C16          0.4710    -0.8900    -0.0070 c3         1 M91       0.048700
     25 C17          0.8260    -2.2740    -0.5570 c3         1 M91       0.025600
     26 C19          1.5880     0.0710    -0.4160 c          1 M91       0.588100
     27 C20          3.8280     0.8860     0.2670 c3         1 M91       0.085700
     28 C21          4.0150     1.8490     1.4400 c3         1 M91      -0.082400
     29 C22          5.2370     2.7640     1.3770 c6         1 M91      -0.057700
     30 C23          5.2740     3.6500     2.6240 c6         1 M91      -0.072900
     31 C24          5.2590     3.6340     0.1190 c6         1 M91      -0.072900
     32 C25          6.4580     4.6100     2.6190 c6         1 M91      -0.073400
     33 C26          6.4410     4.5990     0.1110 c6         1 M91      -0.073400
     34 C27          6.4600     5.4720     1.3610 c6         1 M91      -0.074400
     35 C28          4.9980    -0.0980     0.1000 c3         1 M91       0.150300
     36 C29          4.8240    -0.9040    -1.1890 c3         1 M91       0.042000
     37 C30          5.5130    -3.2010    -0.7240 c          1 M91       0.557200
     38 C31          6.4820    -4.2310    -0.9500 cc         1 M91      -0.318200
     39 C32          7.6230    -3.9970    -1.6540 cd         1 M91      -0.079000
     40 C33          7.8770    -2.7200    -2.2000 cd         1 M91      -0.292000
     41 C34          6.9450    -1.7520    -2.0140 cc         1 M91      -0.030400
     42 H1          -9.0800    -1.1620     1.7780 h1         1 M91       0.008700
     43 HN1         -8.8940    -3.1210     3.1610 hn         1 M91       0.393500
     44 HN1A        -9.6390    -3.5050     1.7830 hn         1 M91       0.393500
     45 H2          -7.4960    -2.9050    -0.1480 hc         1 M91       0.059450
     46 H2A         -9.1520    -2.3460    -0.3760 hc         1 M91       0.059450
     47 H3          -7.1270    -1.3300     3.2680 hc         1 M91       0.059450
     48 H3A         -6.2690    -2.2900     2.0640 hc         1 M91       0.059450
     49 HN3         -0.7880    -0.0640    -1.4650 hn         1 M91       0.334500
     50 H4          -7.5350    -0.8990    -1.6040 h1         1 M91       0.058450
     51 H4A         -8.4150     0.0030    -0.3800 h1         1 M91       0.058450
     52 HN4          2.4880    -0.3300     1.3470 hn         1 M91       0.326500
     53 H5          -5.5710     0.0850     1.9470 h1         1 M91       0.058450
     54 H5A         -7.2370     0.5930     1.7350 h1         1 M91       0.058450
     55 HO5          4.6350    -1.7120     1.1250 ho         1 M91       0.474000
     56 H7          -3.0550     0.1500    -1.5470 h1         1 M91       0.089700
     57 H9          -2.7360     2.1430     0.7520 hc         1 M91       0.064200
     58 H9A         -1.9180     2.2090    -0.8000 hc         1 M91       0.064200
     59 H11         -5.0760     2.8050     0.9720 ha         1 M91       0.112500
     60 H12         -3.2060     2.7380    -2.8750 ha         1 M91       0.112500
     61 H13         -7.0000     4.0080     0.0170 ha         1 M91       0.111500
     62 H14         -5.1240     3.9490    -3.8300 ha         1 M91       0.111500
     63 H15         -7.0340     4.5870    -2.3900 ha         1 M91       0.111000
     64 H16          0.4000    -0.9440     1.0810 h1         1 M91       0.099700
     65 H17          1.8170    -2.5680    -0.2020 h1         1 M91       0.074200
     66 H17A         0.8540    -2.2440    -1.6490 h1         1 M91       0.074200
     67 H18          0.3360    -4.8600    -1.8880 h1         1 M91       0.061700
     68 H18A         1.3460    -5.1380    -0.4510 h1         1 M91       0.061700
     69 H18B        -0.2860    -5.8160    -0.5360 h1         1 M91       0.061700
     70 H20          3.7190     1.4550    -0.6580 h1         1 M91       0.082700
     71 H21          3.1160     2.4710     1.5000 hc         1 M91       0.052700
     72 H21A         4.0520     1.2710     2.3690 hc         1 M91       0.052700
     73 H22          6.1480     2.1510     1.3850 hc         1 M91       0.051700
     74 H23          4.3410     4.2260     2.6720 hc         1 M91       0.038700
     75 H23A         5.2970     3.0240     3.5210 hc         1 M91       0.038700
     76 H24          5.2910     3.0150    -0.7820 hc         1 M91       0.038700
     77 H24A         4.3220     4.2020     0.0700 hc         1 M91       0.038700
     78 H25          6.4350     5.2370     3.5130 hc         1 M91       0.038950
     79 H25A         7.3910     4.0370     2.6640 hc         1 M91       0.038950
     80 H26          7.3730     4.0260     0.0590 hc         1 M91       0.038950
     81 H26A         6.4080     5.2200    -0.7880 hc         1 M91       0.038950
     82 H27          5.5780     6.1200     1.3640 hc         1 M91       0.039700
     83 H27A         7.3320     6.1300     1.3510 hc         1 M91       0.039700
     84 H28          5.9180     0.4910     0.0030 h1         1 M91       0.072700
     85 H29          4.9310    -0.2410    -2.0460 h1         1 M91       0.075700
     86 H29A         3.8330    -1.3520    -1.2520 h1         1 M91       0.075700
     87 H31          6.2760    -5.2030    -0.5230 ha         1 M91       0.211000
     88 H32          8.3400    -4.7940    -1.7970 ha         1 M91       0.189000
     89 H33          8.7740    -2.5060    -2.7600 ha         1 M91       0.203000
     90 H34          7.0610    -0.7540    -2.4130 h4         1 M91       0.201000
     91 O3          -2.0160    -0.7770     1.3460 o          1 M91      -0.566100
     92 S1          -0.3890    -3.5040    -0.0150 ss         1 M91      -0.390000
     93 O4           1.5550     0.6540    -1.4880 o          1 M91      -0.614100
     94 O6           4.4820    -3.3420    -0.0550 o          1 M91      -0.602000
     95 C18          0.3310    -4.9600    -0.8040 c3         1 M91       0.029900
@<TRIPOS>BOND
     1     1     2 1   
     2     1     4 1   
     3     1     7 1   
     4     1    42 1   
     5     2    43 1   
     6     2    44 1   
     7     3    14 2   
     8     4     9 1   
     9     4    45 1   
    10     4    46 1   
    11     5     9 1   
    12     5    11 1   
    13     5    14 1   
    14     6    14 1   
    15     6    15 1   
    16     7    11 1   
    17     7    47 1   
    18     7    48 1   
    19     8    16 1   
    20     8    24 1   
    21     8    49 1   
    22     9    50 1   
    23     9    51 1   
    24    10    26 1   
    25    10    27 1   
    26    10    52 1   
    27    11    53 1   
    28    11    54 1   
    29    12    36 1   
    30    12    37 1   
    31    12    41 1   
    32    13    35 1   
    33    13    55 1   
    34    15    16 1   
    35    15    17 1   
    36    15    56 1   
    37    16    91 2   
    38    17    18 1   
    39    17    57 1   
    40    17    58 1   
    41    18    19 ar  
    42    18    20 ar  
    43    19    21 ar  
    44    19    59 1   
    45    20    22 ar  
    46    20    60 1   
    47    21    23 ar  
    48    21    61 1   
    49    22    23 ar  
    50    22    62 1   
    51    23    63 1   
    52    24    25 1   
    53    24    26 1   
    54    24    64 1   
    55    25    65 1   
    56    25    66 1   
    57    25    92 1   
    58    26    93 2   
    59    27    28 1   
    60    27    35 1   
    61    27    70 1   
    62    28    29 1   
    63    28    71 1   
    64    28    72 1   
    65    29    30 1   
    66    29    31 1   
    67    29    73 1   
    68    30    32 1   
    69    30    74 1   
    70    30    75 1   
    71    31    33 1   
    72    31    76 1   
    73    31    77 1   
    74    32    34 1   
    75    32    78 1   
    76    32    79 1   
    77    33    34 1   
    78    33    80 1   
    79    33    81 1   
    80    34    82 1   
    81    34    83 1   
    82    35    36 1   
    83    35    84 1   
    84    36    85 1   
    85    36    86 1   
    86    37    38 1   
    87    37    94 2   
    88    38    39 2   
    89    38    87 1   
    90    39    40 1   
    91    39    88 1   
    92    40    41 2   
    93    40    89 1   
    94    41    90 1   
    95    67    95 1   
    96    68    95 1   
    97    69    95 1   
    98    92    95 1   
@<TRIPOS>SUBSTRUCTURE
     1 M91         1 TEMP              0 ****  ****    0 ROOT
