@<TRIPOS>MOLECULE
M91
   95    98     1     0     0
SMALL
No Charge or Current Charge


@<TRIPOS>ATOM
      1 C1          -9.2290    -0.7450     1.7390 c6         1 M91       0.164500
      2 N1         -10.3810    -1.2500     2.5040 n8         1 M91      -0.993200
      3 O1          -5.4660    -0.7760    -1.7450 o          1 M91      -0.545000
      4 C2          -9.1780    -1.3920     0.3470 c6         1 M91      -0.099400
      5 N2          -6.6690    -0.8550     0.2350 n          1 M91      -0.398800
      6 O2          -4.3990    -0.4250     0.2580 os         1 M91      -0.435100
      7 C3          -7.9160    -1.0500     2.4750 c6         1 M91      -0.099400
      8 N3          -0.7500    -0.4980    -0.3640 ns         1 M91      -0.500900
      9 C4          -7.9830    -0.8580    -0.4740 c6         1 M91       0.110000
     10 N4           2.8850    -0.2320     0.4450 ns         1 M91      -0.503900
     11 C5          -6.6930    -0.5170     1.6940 c6         1 M91       0.110000
     12 N5           6.6350    -1.7810    -1.4500 n          1 M91      -0.261000
     13 O5           5.4770    -1.1950     1.3010 oh         1 M91      -0.663000
     14 C6          -5.4940    -0.6880    -0.5250 c          1 M91       0.656100
     15 C7          -3.1690     0.0350    -0.3670 c3         1 M91       0.110300
     16 C8          -1.9160    -0.5020     0.3810 c          1 M91       0.603100
     17 C9          -3.1890     1.5890    -0.3590 c3         1 M91      -0.047100
     18 C10         -4.3950     2.2000    -1.0660 ca         1 M91      -0.088300
     19 C11         -5.5040     2.6470    -0.3200 ca         1 M91      -0.095500
     20 C12         -4.4170     2.3060    -2.4700 ca         1 M91      -0.095500
     21 C13         -6.6270     3.1850    -0.9720 ca         1 M91      -0.109500
     22 C14         -5.5390     2.8480    -3.1220 ca         1 M91      -0.109500
     23 C15         -6.6450     3.2860    -2.3730 ca         1 M91      -0.106000
     24 C16          0.5620    -1.0170     0.0990 c3         1 M91       0.048700
     25 C17          0.8860    -2.3800    -0.5630 c3         1 M91       0.025600
     26 C19          1.6880     0.0120    -0.1960 c          1 M91       0.588100
     27 C20          4.0950     0.5940     0.3270 c3         1 M91       0.085700
     28 C21          4.1560     1.5950     1.5150 c3         1 M91      -0.082400
     29 C22          5.3440     2.6100     1.5290 c6         1 M91      -0.057700
     30 C23          5.2700     3.5180     2.7900 c6         1 M91      -0.072900
     31 C24          5.4050     3.4840     0.2410 c6         1 M91      -0.072900
     32 C25          6.4440     4.5270     2.8400 c6         1 M91      -0.073400
     33 C26          6.5750     4.4980     0.2930 c6         1 M91      -0.073400
     34 C27          6.4930     5.3890     1.5560 c6         1 M91      -0.074400
     35 C28          5.3620    -0.3040     0.1740 c3         1 M91       0.150300
     36 C29          5.3310    -1.1430    -1.1280 c3         1 M91       0.042000
     37 C30          6.9480    -3.0090    -0.8320 c          1 M91       0.557200
     38 C31          8.2120    -3.6170    -1.2610 cc         1 M91      -0.318200
     39 C32          9.0590    -3.0510    -2.1890 cd         1 M91      -0.079000
     40 C33          8.6800    -1.7900    -2.7630 cd         1 M91      -0.292000
     41 C34          7.4930    -1.1950    -2.3840 cc         1 M91      -0.030400
     42 H1          -9.3530     0.3430     1.6380 h1         1 M91       0.008700
     43 HN1        -10.4300    -0.7470     3.3970 hn         1 M91       0.393500
     44 HN1A       -11.2440    -0.9670     2.0240 hn         1 M91       0.393500
     45 H2          -9.0890    -2.4830     0.4450 hc         1 M91       0.059450
     46 H2A        -10.1100    -1.2010    -0.2010 hc         1 M91       0.059450
     47 H3          -7.9270    -0.6070     3.4800 hc         1 M91       0.059450
     48 H3A         -7.8090    -2.1350     2.6120 hc         1 M91       0.059450
     49 HN3         -0.7990    -0.0950    -1.2930 hn         1 M91       0.334500
     50 H4          -7.9020    -1.4550    -1.3950 h1         1 M91       0.058450
     51 H4A         -8.2020     0.1750    -0.7840 h1         1 M91       0.058450
     52 HN4          2.9270    -1.0350     1.0630 hn         1 M91       0.326500
     53 H5          -5.7880    -0.9050     2.1830 h1         1 M91       0.058450
     54 H5A         -6.6650     0.5780     1.7890 h1         1 M91       0.058450
     55 HO5          5.7580    -2.0750     0.9370 ho         1 M91       0.474000
     56 H7          -3.0860    -0.3260    -1.4010 h1         1 M91       0.089700
     57 H9          -3.1490     1.9340     0.6820 hc         1 M91       0.064200
     58 H9A         -2.2680     1.9580    -0.8270 hc         1 M91       0.064200
     59 H11         -5.5010     2.5690     0.7640 ha         1 M91       0.112500
     60 H12         -3.5690     1.9620    -3.0580 ha         1 M91       0.112500
     61 H13         -7.4820     3.5240    -0.3920 ha         1 M91       0.111500
     62 H14         -5.5520     2.9250    -4.2070 ha         1 M91       0.111500
     63 H15         -7.5140     3.7020    -2.8780 ha         1 M91       0.111000
     64 H16          0.5380    -1.1530     1.1880 h1         1 M91       0.099700
     65 H17          1.8690    -2.7340    -0.2230 h1         1 M91       0.074200
     66 H17A         0.9300    -2.2570    -1.6530 h1         1 M91       0.074200
     67 H18          0.3600    -4.8540    -2.1710 h1         1 M91       0.061700
     68 H18A         1.3220    -5.3390    -0.7430 h1         1 M91       0.061700
     69 H18B        -0.3310    -5.9820    -0.9680 h1         1 M91       0.061700
     70 H20          4.0100     1.1840    -0.5950 h1         1 M91       0.082700
     71 H21          3.2130     2.1550     1.5280 hc         1 M91       0.052700
     72 H21A         4.1690     1.0170     2.4480 hc         1 M91       0.052700
     73 H22          6.2690     2.0210     1.5980 hc         1 M91       0.051700
     74 H23          4.3170     4.0650     2.8010 hc         1 M91       0.038700
     75 H23A         5.2840     2.8990     3.6980 hc         1 M91       0.038700
     76 H24          5.5300     2.8510    -0.6470 hc         1 M91       0.038700
     77 H24A         4.4560     4.0230     0.1100 hc         1 M91       0.038700
     78 H25          6.3400     5.1760     3.7200 hc         1 M91       0.038950
     79 H25A         7.3930     3.9860     2.9600 hc         1 M91       0.038950
     80 H26          7.5320     3.9580     0.2830 hc         1 M91       0.038950
     81 H26A         6.5620     5.1270    -0.6070 hc         1 M91       0.038950
     82 H27          5.6000     6.0270     1.5030 hc         1 M91       0.039700
     83 H27A         7.3590     6.0640     1.5930 hc         1 M91       0.039700
     84 H28          6.2440     0.3490     0.1150 h1         1 M91       0.072700
     85 H29          5.0470    -0.4870    -1.9610 h1         1 M91       0.075700
     86 H29A         4.5500    -1.9120    -1.0600 h1         1 M91       0.075700
     87 H31          8.4460    -4.5620    -0.7840 ha         1 M91       0.211000
     88 H32          9.9900    -3.5420    -2.4730 ha         1 M91       0.189000
     89 H33          9.3230    -1.3060    -3.4960 ha         1 M91       0.203000
     90 H34          7.1250    -0.2470    -2.7670 h4         1 M91       0.201000
     91 O3          -1.9460    -0.9370     1.5260 o          1 M91      -0.566100
     92 S1          -0.3760    -3.6740    -0.1530 ss         1 M91      -0.390000
     93 O4           1.5390     0.9730    -0.9410 o          1 M91      -0.614100
     94 O6           6.2320    -3.5130     0.0240 o          1 M91      -0.602000
     95 C18          0.3130    -5.1030    -1.1030 c3         1 M91       0.029900
@<TRIPOS>BOND
     1     1     2 1   
     2     1     4 1   
     3     1     7 1   
     4     1    42 1   
     5     2    43 1   
     6     2    44 1   
     7     3    14 2   
     8     4     9 1   
     9     4    45 1   
    10     4    46 1   
    11     5     9 1   
    12     5    11 1   
    13     5    14 1   
    14     6    14 1   
    15     6    15 1   
    16     7    11 1   
    17     7    47 1   
    18     7    48 1   
    19     8    16 1   
    20     8    24 1   
    21     8    49 1   
    22     9    50 1   
    23     9    51 1   
    24    10    26 1   
    25    10    27 1   
    26    10    52 1   
    27    11    53 1   
    28    11    54 1   
    29    12    36 1   
    30    12    37 1   
    31    12    41 1   
    32    13    35 1   
    33    13    55 1   
    34    15    16 1   
    35    15    17 1   
    36    15    56 1   
    37    16    91 2   
    38    17    18 1   
    39    17    57 1   
    40    17    58 1   
    41    18    19 ar  
    42    18    20 ar  
    43    19    21 ar  
    44    19    59 1   
    45    20    22 ar  
    46    20    60 1   
    47    21    23 ar  
    48    21    61 1   
    49    22    23 ar  
    50    22    62 1   
    51    23    63 1   
    52    24    25 1   
    53    24    26 1   
    54    24    64 1   
    55    25    65 1   
    56    25    66 1   
    57    25    92 1   
    58    26    93 2   
    59    27    28 1   
    60    27    35 1   
    61    27    70 1   
    62    28    29 1   
    63    28    71 1   
    64    28    72 1   
    65    29    30 1   
    66    29    31 1   
    67    29    73 1   
    68    30    32 1   
    69    30    74 1   
    70    30    75 1   
    71    31    33 1   
    72    31    76 1   
    73    31    77 1   
    74    32    34 1   
    75    32    78 1   
    76    32    79 1   
    77    33    34 1   
    78    33    80 1   
    79    33    81 1   
    80    34    82 1   
    81    34    83 1   
    82    35    36 1   
    83    35    84 1   
    84    36    85 1   
    85    36    86 1   
    86    37    38 1   
    87    37    94 2   
    88    38    39 2   
    89    38    87 1   
    90    39    40 1   
    91    39    88 1   
    92    40    41 2   
    93    40    89 1   
    94    41    90 1   
    95    67    95 1   
    96    68    95 1   
    97    69    95 1   
    98    92    95 1   
@<TRIPOS>SUBSTRUCTURE
     1 M91         1 TEMP              0 ****  ****    0 ROOT
