@<TRIPOS>MOLECULE
M92
   60    62     1     0     0
SMALL
No Charge or Current Charge


@<TRIPOS>ATOM
      1 O           -1.4660     4.0460     0.8110 o          1 M92      -0.652100
      2 C15         -0.2510     4.1450     0.8370 c          1 M92       0.653700
      3 N4           0.2980     5.3310     1.1510 nt         1 M92      -0.593000
      4 C14          0.6710     3.0120     0.5160 ca         1 M92      -0.403600
      5 C13          2.0640     3.2040     0.4480 ca         1 M92       0.205900
      6 N3           2.9070     2.2050     0.1410 nb         1 M92      -0.292000
      7 C12          2.3640     1.0000    -0.1120 ca         1 M92       0.441900
      8 N5           3.2440    -0.0710    -0.4330 nh         1 M92      -0.755300
      9 C20          4.7330     0.1250    -0.5400 c6         1 M92       0.177800
     10 C19          5.5200    -1.1320    -0.0370 c6         1 M92       0.142500
     11 N6           5.3450    -1.3350     1.4260 n8         1 M92      -0.995200
     12 C18          5.0480    -2.3910    -0.8070 c6         1 M92      -0.075400
     13 C17          3.5090    -2.5640    -0.7100 c6         1 M92      -0.106400
     14 C16          2.7580    -1.2880    -1.1660 c6         1 M92       0.212800
     15 N2           1.0540     0.7180    -0.0660 nb         1 M92      -0.332000
     16 C11          0.2180     1.7100     0.2570 ca         1 M92       0.473900
     17 N1          -1.1290     1.4030     0.2930 nu         1 M92      -0.936900
     18 C5          -1.8890     0.2440     0.1420 ca         1 M92       0.347000
     19 C4          -3.2070     0.3550    -0.3000 ca         1 M92      -0.198000
     20 C6          -1.3960    -1.0300     0.4430 ca         1 M92      -0.198000
     21 C7          -2.2240    -2.1460     0.2600 ca         1 M92       0.379300
     22 C8          -1.7290    -3.5620     0.5670 c3         1 M92      -0.115500
     23 C10         -0.4870    -3.9350    -0.2770 c3         1 M92      -0.085100
     24 C9          -1.4650    -3.7550     2.0790 c3         1 M92      -0.085100
     25 N           -3.4940    -2.0370    -0.1840 nb         1 M92      -0.701000
     26 C3          -3.9790    -0.8060    -0.4560 ca         1 M92       0.379300
     27 C1          -5.4270    -0.7410    -0.9490 c3         1 M92      -0.115500
     28 C2          -6.3300     0.0460     0.0300 c3         1 M92      -0.085100
     29 C           -5.5160    -0.1750    -2.3860 c3         1 M92      -0.085100
     30 H1          -0.3080     6.1080     1.3650 hn         1 M92       0.315500
     31 H2           1.3000     5.4370     1.1780 hn         1 M92       0.315500
     32 H3           2.5280     4.1710     0.6340 h4         1 M92       0.012100
     33 H4           5.0080     0.3220    -1.5870 h1         1 M92       0.071200
     34 H5           5.0780     0.9900     0.0440 h1         1 M92       0.071200
     35 H6           6.5950    -0.9800    -0.2270 h1         1 M92       0.067700
     36 H7           5.6750    -0.4960     1.9160 hn         1 M92       0.399000
     37 H8           4.3330    -1.3140     1.5960 hn         1 M92       0.399000
     38 H10          5.3400    -2.3020    -1.8630 hc         1 M92       0.051700
     39 H11          5.5550    -3.2870    -0.4230 hc         1 M92       0.051700
     40 H12          3.1910    -3.4160    -1.3250 hc         1 M92       0.052700
     41 H13          3.2210    -2.8070     0.3210 hc         1 M92       0.052700
     42 H14          1.6830    -1.4640    -1.0160 h1         1 M92       0.068700
     43 H15          2.9060    -1.1510    -2.2480 h1         1 M92       0.068700
     44 H16         -1.6800     2.2620     0.4060 hn         1 M92       0.551000
     45 H17         -3.6290     1.3270    -0.5330 ha         1 M92       0.136500
     46 H18         -0.3950    -1.1660     0.8310 ha         1 M92       0.136500
     47 H19         -2.5170    -4.2750     0.2930 hc         1 M92       0.070200
     48 H20          0.3770    -3.3160    -0.0080 hc         1 M92       0.035950
     49 H21         -0.2140    -4.9850    -0.1200 hc         1 M92       0.035950
     50 H22         -0.6920    -3.7940    -1.3460 hc         1 M92       0.035950
     51 H23         -2.3660    -3.5220     2.6590 hc         1 M92       0.035950
     52 H24         -1.1830    -4.7930     2.2930 hc         1 M92       0.035950
     53 H25         -0.6550    -3.1030     2.4260 hc         1 M92       0.035950
     54 H26         -5.8280    -1.7620    -0.9910 hc         1 M92       0.070200
     55 H27         -6.0260     1.0970     0.0920 hc         1 M92       0.035950
     56 H28         -7.3760     0.0120    -0.2980 hc         1 M92       0.035950
     57 H29         -6.2750    -0.3880     1.0360 hc         1 M92       0.035950
     58 H30         -6.5490    -0.2120    -2.7530 hc         1 M92       0.035950
     59 H31         -5.1780     0.8670    -2.4240 hc         1 M92       0.035950
     60 H32         -4.8920    -0.7640    -3.0700 hc         1 M92       0.035950
@<TRIPOS>BOND
     1     1     2 2   
     2     2     3 1   
     3     2     4 1   
     4     3    30 1   
     5     3    31 1   
     6     4     5 ar  
     7     4    16 ar  
     8     5     6 ar  
     9     5    32 1   
    10     6     7 ar  
    11     7     8 1   
    12     7    15 ar  
    13     8     9 1   
    14     8    14 1   
    15     9    10 1   
    16     9    33 1   
    17     9    34 1   
    18    10    11 1   
    19    10    12 1   
    20    10    35 1   
    21    11    36 1   
    22    11    37 1   
    23    12    13 1   
    24    12    38 1   
    25    12    39 1   
    26    13    14 1   
    27    13    40 1   
    28    13    41 1   
    29    14    42 1   
    30    14    43 1   
    31    15    16 ar  
    32    16    17 1   
    33    17    18 1   
    34    17    44 1   
    35    18    19 ar  
    36    18    20 ar  
    37    19    26 ar  
    38    19    45 1   
    39    20    21 ar  
    40    20    46 1   
    41    21    22 1   
    42    21    25 ar  
    43    22    23 1   
    44    22    24 1   
    45    22    47 1   
    46    23    48 1   
    47    23    49 1   
    48    23    50 1   
    49    24    51 1   
    50    24    52 1   
    51    24    53 1   
    52    25    26 ar  
    53    26    27 1   
    54    27    28 1   
    55    27    29 1   
    56    27    54 1   
    57    28    55 1   
    58    28    56 1   
    59    28    57 1   
    60    29    58 1   
    61    29    59 1   
    62    29    60 1   
@<TRIPOS>SUBSTRUCTURE
     1 M92         1 TEMP              0 ****  ****    0 ROOT
