@<TRIPOS>MOLECULE
M92
   60    62     1     0     0
SMALL
abcg2


@<TRIPOS>ATOM
      1 O           -1.2600     3.9120     0.7540 o          1 M92      -0.652100
      2 C15         -0.0270     3.9610     0.8180 c          1 M92       0.653700
      3 N4           0.5930     5.0300     1.3390 nt         1 M92      -0.593000
      4 C14          0.8210     2.8630     0.3190 ca         1 M92      -0.403600
      5 C13          2.1760     3.0160     0.0580 ca         1 M92       0.205900
      6 N3           2.9740     2.0660    -0.3790 nb         1 M92      -0.292000
      7 C12          2.4050     0.8620    -0.5700 ca         1 M92       0.441900
      8 N5           3.1940    -0.1360    -1.0060 nh         1 M92      -0.755300
      9 C20          4.6370    -0.0130    -1.1010 c6         1 M92       0.177800
     10 C19          5.3130    -0.7570     0.0590 c6         1 M92       0.142500
     11 N6           5.0860    -0.1530     1.3640 n8         1 M92      -0.995200
     12 C18          4.8530    -2.2160     0.0560 c6         1 M92      -0.075400
     13 C17          3.3300    -2.3410     0.0330 c6         1 M92      -0.106400
     14 C16          2.7370    -1.5110    -1.1000 c6         1 M92       0.212800
     15 N2           1.1080     0.5970    -0.3920 nb         1 M92      -0.332000
     16 C11          0.3130     1.5660     0.0190 ca         1 M92       0.473900
     17 N1          -1.0140     1.3280     0.1460 nu         1 M92      -0.936900
     18 C5          -1.7450     0.1670    -0.0420 ca         1 M92       0.347000
     19 C4          -3.1090     0.3130    -0.2850 ca         1 M92      -0.198000
     20 C6          -1.2330    -1.1290     0.0460 ca         1 M92      -0.198000
     21 C7          -2.1010    -2.1990    -0.1180 ca         1 M92       0.379300
     22 C8          -1.6440    -3.6340     0.0230 c3         1 M92      -0.115500
     23 C10         -0.1600    -3.8530    -0.2420 c3         1 M92      -0.085100
     24 C9          -2.0340    -4.1540     1.4090 c3         1 M92      -0.085100
     25 N           -3.4030    -2.0440    -0.3640 nb         1 M92      -0.701000
     26 C3          -3.9010    -0.8140    -0.4430 ca         1 M92       0.379300
     27 C1          -5.3830    -0.6870    -0.7060 c3         1 M92      -0.115500
     28 C2          -6.1060    -0.1240     0.5190 c3         1 M92      -0.085100
     29 C           -5.6710     0.1520    -1.9500 c3         1 M92      -0.085100
     30 H1           0.0360     5.7840     1.7070 hn         1 M92       0.315500
     31 H2           1.5710     5.0410     1.5690 hn         1 M92       0.315500
     32 H3           2.6510     3.9820     0.1940 h4         1 M92       0.012100
     33 H4           4.9500    -0.4520    -2.0540 h1         1 M92       0.071200
     34 H5           4.9200     1.0360    -1.1100 h1         1 M92       0.071200
     35 H6           6.3910    -0.7320    -0.1320 h1         1 M92       0.067700
     36 H7           5.3080     0.8340     1.3270 hn         1 M92       0.399000
     37 H8           4.1060    -0.2000     1.6130 hn         1 M92       0.399000
     38 H10          5.2600    -2.7040    -0.8350 hc         1 M92       0.051700
     39 H11          5.2690    -2.7370     0.9210 hc         1 M92       0.051700
     40 H12          3.0430    -3.3870    -0.1000 hc         1 M92       0.052700
     41 H13          2.8930    -2.0240     0.9850 hc         1 M92       0.052700
     42 H14          1.6510    -1.5400    -1.0950 h1         1 M92       0.068700
     43 H15          3.0710    -1.9120    -2.0630 h1         1 M92       0.068700
     44 H16         -1.5470     2.1790     0.3270 hn         1 M92       0.551000
     45 H17         -3.5420     1.3030    -0.3650 ha         1 M92       0.136500
     46 H18         -0.1880    -1.2920     0.2470 ha         1 M92       0.136500
     47 H19         -2.2090    -4.2070    -0.7180 hc         1 M92       0.070200
     48 H20          0.4670    -3.3890     0.5210 hc         1 M92       0.035950
     49 H21          0.0660    -4.9200    -0.2360 hc         1 M92       0.035950
     50 H22          0.1410    -3.4560    -1.2130 hc         1 M92       0.035950
     51 H23         -3.1030    -4.0400     1.5870 hc         1 M92       0.035950
     52 H24         -1.7890    -5.2130     1.5060 hc         1 M92       0.035950
     53 H25         -1.5010    -3.6130     2.1930 hc         1 M92       0.035950
     54 H26         -5.7490    -1.7010    -0.8840 hc         1 M92       0.070200
     55 H27         -5.7860     0.8970     0.7350 hc         1 M92       0.035950
     56 H28         -7.1840    -0.1040     0.3510 hc         1 M92       0.035950
     57 H29         -5.9180    -0.7310     1.4050 hc         1 M92       0.035950
     58 H30         -6.7410     0.1600    -2.1620 hc         1 M92       0.035950
     59 H31         -5.3560     1.1890    -1.8200 hc         1 M92       0.035950
     60 H32         -5.1600    -0.2450    -2.8270 hc         1 M92       0.035950
@<TRIPOS>BOND
     1     1     2 2   
     2     2     3 1   
     3     2     4 1   
     4     3    30 1   
     5     3    31 1   
     6     4     5 ar  
     7     4    16 ar  
     8     5     6 ar  
     9     5    32 1   
    10     6     7 ar  
    11     7     8 1   
    12     7    15 ar  
    13     8     9 1   
    14     8    14 1   
    15     9    10 1   
    16     9    33 1   
    17     9    34 1   
    18    10    11 1   
    19    10    12 1   
    20    10    35 1   
    21    11    36 1   
    22    11    37 1   
    23    12    13 1   
    24    12    38 1   
    25    12    39 1   
    26    13    14 1   
    27    13    40 1   
    28    13    41 1   
    29    14    42 1   
    30    14    43 1   
    31    15    16 ar  
    32    16    17 1   
    33    17    18 1   
    34    17    44 1   
    35    18    19 ar  
    36    18    20 ar  
    37    19    26 ar  
    38    19    45 1   
    39    20    21 ar  
    40    20    46 1   
    41    21    22 1   
    42    21    25 ar  
    43    22    23 1   
    44    22    24 1   
    45    22    47 1   
    46    23    48 1   
    47    23    49 1   
    48    23    50 1   
    49    24    51 1   
    50    24    52 1   
    51    24    53 1   
    52    25    26 ar  
    53    26    27 1   
    54    27    28 1   
    55    27    29 1   
    56    27    54 1   
    57    28    55 1   
    58    28    56 1   
    59    28    57 1   
    60    29    58 1   
    61    29    59 1   
    62    29    60 1   
@<TRIPOS>SUBSTRUCTURE
     1 M92         1 TEMP              0 ****  ****    0 ROOT
