@<TRIPOS>MOLECULE
M93
   37    39     1     0     0
SMALL
No Charge or Current Charge


@<TRIPOS>ATOM
      1 N1           8.3180     0.3280    20.9970 ns         1 M93      -0.153000
      2 C4           7.8640     1.7050    18.9650 ca         1 M93       0.326900
      3 C5           7.4930     0.7020    19.8970 ca         1 M93      -0.057000
      4 C6           9.6510     0.5880    21.2830 c          1 M93       0.602100
      5 C7          10.1490     0.0060    22.6310 c6         1 M93      -0.081400
      6 C8           9.9080     0.9910    23.8040 c6         1 M93      -0.101400
      7 C10         12.6240     0.2960    23.2360 ca         1 M93       0.167100
      8 C13         13.3110    -2.0120    21.7830 ca         1 M93       0.089000
      9 C15         11.6170    -0.4390    22.5650 ca         1 M93      -0.149300
     10 N            7.0820     2.0860    17.9260 nb         1 M93      -0.640000
     11 C1           6.2350     0.0720    19.7390 ca         1 M93      -0.098300
     12 C11         13.9600    -0.1340    23.1870 ca         1 M93      -0.134000
     13 O1          10.4040     1.1720    20.5110 o          1 M93      -0.574100
     14 C2           5.4300     0.4740    18.6550 ca         1 M93      -0.131000
     15 C9          11.0290     2.0500    23.8270 c6         1 M93       0.157600
     16 C12         14.3060    -1.2860    22.4580 ca         1 M93      -0.061000
     17 C14         11.9700    -1.5940    21.8380 ca         1 M93      -0.062000
     18 C            5.7480    -1.0260    20.6850 c3         1 M93       0.201900
     19 O            5.5340    -0.4990    22.0000 oh         1 M93      -0.676000
     20 O2          12.3220     1.4220    23.9770 os         1 M93      -0.346100
     21 C3           5.8870     1.4730    17.7810 ca         1 M93       0.312900
     22 Cl          13.7430    -3.4540    20.8730 cl         1 M93      -0.215000
     23 H1           7.8320    -0.1970    21.7130 hn         1 M93       0.174000
     24 H3           9.4970    -0.8500    22.8580 hc         1 M93       0.064700
     25 H4           8.9240     1.4730    23.7210 hc         1 M93       0.064200
     26 H5           9.9120     0.4460    24.7580 hc         1 M93       0.064200
     27 H6          14.7270     0.4280    23.7130 ha         1 M93       0.135000
     28 H7           4.4570     0.0210    18.4840 ha         1 M93       0.122000
     29 H8          11.0220     2.6260    22.8900 h1         1 M93       0.072200
     30 H9          10.8760     2.7550    24.6570 h1         1 M93       0.072200
     31 H10         15.3410    -1.6150    22.4170 ha         1 M93       0.133000
     32 H11         11.2090    -2.1690    21.3170 ha         1 M93       0.120000
     33 H12          4.8160    -1.4570    20.2940 h1         1 M93       0.039700
     34 H13          6.4920    -1.8330    20.7110 h1         1 M93       0.039700
     35 H14          5.1170    -1.2150    22.5290 ho         1 M93       0.449000
     36 H15          5.2760     1.7950    16.9380 h4         1 M93       0.024100
     37 H2           8.8050     2.2440    19.0510 h4         1 M93       0.045100
@<TRIPOS>BOND
     1     1     3 1   
     2     1     4 1   
     3     1    23 1   
     4     2     3 ar  
     5     2    10 ar  
     6     2    37 1   
     7     3    11 ar  
     8     4     5 1   
     9     4    13 2   
    10     5     6 1   
    11     5     9 1   
    12     5    24 1   
    13     6    15 1   
    14     6    25 1   
    15     6    26 1   
    16     7     9 ar  
    17     7    12 ar  
    18     7    20 1   
    19     8    16 ar  
    20     8    17 ar  
    21     8    22 1   
    22     9    17 ar  
    23    10    21 ar  
    24    11    14 ar  
    25    11    18 1   
    26    12    16 ar  
    27    12    27 1   
    28    14    21 ar  
    29    14    28 1   
    30    15    20 1   
    31    15    29 1   
    32    15    30 1   
    33    16    31 1   
    34    17    32 1   
    35    18    19 1   
    36    18    33 1   
    37    18    34 1   
    38    19    35 1   
    39    21    36 1   
@<TRIPOS>SUBSTRUCTURE
     1 M93         1 TEMP              0 ****  ****    0 ROOT
