@<TRIPOS>MOLECULE
M93
   37    39     1     0     0
SMALL
abcg2


@<TRIPOS>ATOM
      1 N1           8.1890     0.5090    21.2480 ns         1 M93      -0.153000
      2 C4           7.5930     2.0380    19.4190 ca         1 M93       0.326900
      3 C5           7.4450     0.8280    20.0990 ca         1 M93      -0.057000
      4 C6           9.4620     0.8910    21.5370 c          1 M93       0.602100
      5 C7           9.9860     0.3470    22.8660 c6         1 M93      -0.081400
      6 C8          10.1230     1.4760    23.9020 c6         1 M93      -0.101400
      7 C10         12.5080     0.2670    23.0750 ca         1 M93       0.167100
      8 C13         12.5850    -2.2330    21.8850 ca         1 M93       0.089000
      9 C15         11.3170    -0.3370    22.6630 ca         1 M93      -0.149300
     10 N            6.8850     2.3560    18.3340 nb         1 M93      -0.640000
     11 C1           6.4980    -0.0950    19.6310 ca         1 M93      -0.098300
     12 C11         13.7270    -0.3920    22.8960 ca         1 M93      -0.134000
     13 O1          10.1390     1.6130    20.8150 o          1 M93      -0.574100
     14 C2           5.7590     0.2540    18.5090 ca         1 M93      -0.131000
     15 C9          11.3710     2.2940    23.6460 c6         1 M93       0.157600
     16 C12         13.7720    -1.6410    22.3010 ca         1 M93      -0.061000
     17 C14         11.3710    -1.5960    22.0650 ca         1 M93      -0.062000
     18 C            6.3190    -1.4340    20.2880 c3         1 M93       0.201900
     19 O            6.0240    -1.2400    21.6800 oh         1 M93      -0.676000
     20 O2          12.5600     1.4810    23.6860 os         1 M93      -0.346100
     21 C3           5.9870     1.4750    17.8880 ca         1 M93       0.312900
     22 CL          12.6270    -3.8160    21.1270 cl         1 M93      -0.215000
     23 H1           7.7360    -0.1480    21.8720 hn         1 M93       0.174000
     24 H3           9.2760    -0.3890    23.2460 hc         1 M93       0.064700
     25 H4           9.2500     2.1310    23.8790 hc         1 M93       0.064200
     26 H5          10.1760     1.0300    24.8980 hc         1 M93       0.064200
     27 H6          14.6370     0.0910    23.2280 ha         1 M93       0.135000
     28 H7           5.0140    -0.4260    18.1160 ha         1 M93       0.122000
     29 H8          11.3210     2.7830    22.6720 h1         1 M93       0.072200
     30 H9          11.5170     3.0470    24.4180 h1         1 M93       0.072200
     31 H10         14.7170    -2.1480    22.1600 ha         1 M93       0.133000
     32 H11         10.4530    -2.0720    21.7460 ha         1 M93       0.120000
     33 H12          5.5110    -1.9810    19.7970 h1         1 M93       0.039700
     34 H13          7.2430    -2.0140    20.1810 h1         1 M93       0.039700
     35 H14          6.0580    -2.1000    22.1190 ho         1 M93       0.449000
     36 H15          5.4200     1.7580    17.0080 h4         1 M93       0.024100
     37 H2           8.3110     2.7660    19.7680 h4         1 M93       0.045100
@<TRIPOS>BOND
     1     1     3 1   
     2     1     4 1   
     3     1    23 1   
     4     2     3 ar  
     5     2    10 ar  
     6     2    37 1   
     7     3    11 ar  
     8     4     5 1   
     9     4    13 2   
    10     5     6 1   
    11     5     9 1   
    12     5    24 1   
    13     6    15 1   
    14     6    25 1   
    15     6    26 1   
    16     7     9 ar  
    17     7    12 ar  
    18     7    20 1   
    19     8    16 ar  
    20     8    17 ar  
    21     8    22 1   
    22     9    17 ar  
    23    10    21 ar  
    24    11    14 ar  
    25    11    18 1   
    26    12    16 ar  
    27    12    27 1   
    28    14    21 ar  
    29    14    28 1   
    30    15    20 1   
    31    15    29 1   
    32    15    30 1   
    33    16    31 1   
    34    17    32 1   
    35    18    19 1   
    36    18    33 1   
    37    18    34 1   
    38    19    35 1   
    39    21    36 1   
@<TRIPOS>SUBSTRUCTURE
     1 M93         1 TEMP              0 ****  ****    0 ROOT
