@<TRIPOS>MOLECULE
M94
   44    46     1     0     0
SMALL
abcg2


@<TRIPOS>ATOM
      1 C30         -7.5010    -2.6990     0.8000 c3         1 M94       0.145100
      2 N29         -6.8480    -2.0430    -0.3140 n7         1 M94      -0.860400
      3 C28         -5.8370    -1.0970     0.1130 c3         1 M94       0.156800
      4 C27         -5.1740    -0.4290    -1.0890 c3         1 M94      -0.036100
      5 C26         -2.8140     0.1850    -0.5000 ca         1 M94      -0.144000
      6 C25         -4.1360     0.5720    -0.6660 ca         1 M94      -0.043300
      7 C24         -4.4930     1.8940    -0.3930 ca         1 M94      -0.144000
      8 C23         -3.5320     2.7970     0.0270 ca         1 M94      -0.072000
      9 C22         -2.2040     2.4140     0.1880 ca         1 M94      -0.201000
     10 C21         -1.8450     1.0950    -0.0760 ca         1 M94       0.143100
     11 O12         -0.5910     0.6090     0.0410 os         1 M94      -0.344100
     12 C11          0.4380     1.4830     0.4810 c3         1 M94       0.209900
     13 C10          3.9380     0.1370    -0.1600 ca         1 M94       0.322000
     14 C09          2.7480     0.8930    -0.2580 ca         1 M94      -0.082000
     15 C08          1.6950     0.6750     0.5950 ca         1 M94      -0.072300
     16 C07          1.7880    -0.3250     1.5870 ca         1 M94      -0.106000
     17 C06          2.9280    -1.0750     1.7030 ca         1 M94      -0.078000
     18 C05          4.0190    -0.8600     0.8390 ca         1 M94      -0.122000
     19 C04          5.2270    -1.6010     0.9110 ca         1 M94      -0.030000
     20 C03          6.2360    -1.3350     0.0450 ca         1 M94      -0.207000
     21 C02          6.0530    -0.3070    -0.9330 ca         1 M94       0.617900
     22 N02          7.0720    -0.0130    -1.7780 nv         1 M94      -1.069900
     23 N01          4.9460     0.3930    -1.0260 nb         1 M94      -0.759000
     24 H301        -8.0590    -1.9660     1.3860 h1         1 M94       0.029033
     25 H302        -8.2140    -3.4360     0.4300 h1         1 M94       0.029033
     26 H303        -6.8110    -3.2100     1.4870 h1         1 M94       0.029033
     27 H29         -6.4090    -2.7470    -0.8960 hn         1 M94       0.404000
     28 H281        -6.3200    -0.3330     0.7300 h1         1 M94       0.033700
     29 H282        -5.0610    -1.5580     0.7450 h1         1 M94       0.033700
     30 H271        -4.7150    -1.1970    -1.7170 hc         1 M94       0.054200
     31 H272        -5.9430     0.0600    -1.6920 hc         1 M94       0.054200
     32 H24         -5.5210     2.2130    -0.5160 ha         1 M94       0.116000
     33 H23         -3.8080     3.8230     0.2320 ha         1 M94       0.110000
     34 H22         -1.4780     3.1490     0.5070 ha         1 M94       0.116000
     35 H111         0.5730     2.3080    -0.2260 h1         1 M94       0.042700
     36 H112         0.1770     1.9150     1.4540 h1         1 M94       0.042700
     37 H09          2.6870     1.6560    -1.0260 ha         1 M94       0.129000
     38 H07          0.9580    -0.4930     2.2610 ha         1 M94       0.120000
     39 H06          3.0040    -1.8410     2.4650 ha         1 M94       0.113000
     40 H04          5.3340    -2.3770     1.6590 ha         1 M94       0.117000
     41 H03          7.1680    -1.8850     0.0820 ha         1 M94       0.120000
     42 H021         7.8120    -0.6830    -1.9010 hn         1 M94       0.479000
     43 H022         6.8590     0.5480    -2.5860 hn         1 M94       0.479000
     44 H26         -2.5180    -0.8380    -0.7080 ha         1 M94       0.125000
@<TRIPOS>BOND
     1     1     2 1   
     2     1    24 1   
     3     1    25 1   
     4     1    26 1   
     5     2     3 1   
     6     2    27 1   
     7     3     4 1   
     8     3    28 1   
     9     3    29 1   
    10     4     6 1   
    11     4    30 1   
    12     4    31 1   
    13     5     6 ar  
    14     5    10 ar  
    15     5    44 1   
    16     6     7 ar  
    17     7     8 ar  
    18     7    32 1   
    19     8     9 ar  
    20     8    33 1   
    21     9    10 ar  
    22     9    34 1   
    23    10    11 1   
    24    11    12 1   
    25    12    15 1   
    26    12    35 1   
    27    12    36 1   
    28    13    14 ar  
    29    13    18 ar  
    30    13    23 ar  
    31    14    15 ar  
    32    14    37 1   
    33    15    16 ar  
    34    16    17 ar  
    35    16    38 1   
    36    17    18 ar  
    37    17    39 1   
    38    18    19 ar  
    39    19    20 ar  
    40    19    40 1   
    41    20    21 ar  
    42    20    41 1   
    43    21    22 1   
    44    21    23 ar  
    45    22    42 1   
    46    22    43 1   
@<TRIPOS>SUBSTRUCTURE
     1 M94         1 TEMP              0 ****  ****    0 ROOT
