@<TRIPOS>MOLECULE
M94
   44    46     1     0     0
SMALL
No Charge or Current Charge


@<TRIPOS>ATOM
      1 C30         -7.4730    -2.9470     0.3230 c3         1 M94       0.145100
      2 N29         -6.7430    -2.1220    -0.6590 n7         1 M94      -0.860400
      3 C28         -5.7790    -1.1660    -0.0770 c3         1 M94       0.156800
      4 C27         -5.0950    -0.3380    -1.1840 c3         1 M94      -0.036100
      5 C26         -2.7570     0.2860    -0.4020 ca         1 M94      -0.144000
      6 C25         -4.0970     0.6620    -0.6140 ca         1 M94      -0.043300
      7 C24         -4.5070     1.9670    -0.2860 ca         1 M94      -0.144000
      8 C23         -3.5880     2.8870     0.2440 ca         1 M94      -0.072000
      9 C22         -2.2510     2.5080     0.4520 ca         1 M94      -0.201000
     10 C21         -1.8310     1.2000     0.1280 ca         1 M94       0.143100
     11 O12         -0.5340     0.7690     0.3110 os         1 M94      -0.344100
     12 C11          0.4890     1.6250     0.8480 c3         1 M94       0.209900
     13 C10          3.8310     0.0280    -0.1880 ca         1 M94       0.322000
     14 C09          2.6230     0.7500    -0.2210 ca         1 M94      -0.082000
     15 C08          1.7910     0.8380     0.9130 ca         1 M94      -0.072300
     16 C07          2.1720     0.1890     2.1020 ca         1 M94      -0.106000
     17 C06          3.3720    -0.5370     2.1580 ca         1 M94      -0.078000
     18 C05          4.2000    -0.6190     1.0220 ca         1 M94      -0.122000
     19 C04          5.4030    -1.3470     1.0760 ca         1 M94      -0.030000
     20 C03          6.1910    -1.3990    -0.0820 ca         1 M94      -0.207000
     21 C02          5.7370    -0.7250    -1.2170 ca         1 M94       0.617900
     22 N02          6.3900    -0.7060    -2.3800 nv         1 M94      -1.069900
     23 N01          4.6080    -0.0350    -1.2970 nb         1 M94      -0.759000
     24 H301        -8.0500    -2.3160     1.0120 h1         1 M94       0.029033
     25 H302        -8.1740    -3.6230    -0.1870 h1         1 M94       0.029033
     26 H303        -6.7790    -3.5590     0.9150 h1         1 M94       0.029033
     27 H29         -6.2280    -2.7540    -1.2860 hn         1 M94       0.404000
     28 H281        -6.2900    -0.4790     0.6120 h1         1 M94       0.033700
     29 H282        -5.0080    -1.6990     0.4960 h1         1 M94       0.033700
     30 H271        -4.5890    -1.0160    -1.8830 hc         1 M94       0.054200
     31 H272        -5.8620     0.1870    -1.7660 hc         1 M94       0.054200
     32 H24         -5.5400     2.2700    -0.4410 ha         1 M94       0.116000
     33 H23         -3.9130     3.8950     0.4950 ha         1 M94       0.110000
     34 H22         -1.5610     3.2390     0.8640 ha         1 M94       0.116000
     35 H111         0.6290     2.5080     0.2110 h1         1 M94       0.042700
     36 H112         0.2170     1.9680     1.8540 h1         1 M94       0.042700
     37 H09          2.3300     1.2450    -1.1420 ha         1 M94       0.129000
     38 H07          1.5370     0.2450     2.9830 ha         1 M94       0.120000
     39 H06          3.6560    -1.0350     3.0830 ha         1 M94       0.113000
     40 H04          5.7160    -1.8560     1.9860 ha         1 M94       0.117000
     41 H03          7.1280    -1.9450    -0.0960 ha         1 M94       0.120000
     42 H021         7.0420    -1.4620    -2.5560 hn         1 M94       0.479000
     43 H022         5.8410    -0.3890    -3.1700 hn         1 M94       0.479000
     44 H26         -2.4280    -0.7200    -0.6480 ha         1 M94       0.125000
@<TRIPOS>BOND
     1     1     2 1   
     2     1    24 1   
     3     1    25 1   
     4     1    26 1   
     5     2     3 1   
     6     2    27 1   
     7     3     4 1   
     8     3    28 1   
     9     3    29 1   
    10     4     6 1   
    11     4    30 1   
    12     4    31 1   
    13     5     6 ar  
    14     5    10 ar  
    15     5    44 1   
    16     6     7 ar  
    17     7     8 ar  
    18     7    32 1   
    19     8     9 ar  
    20     8    33 1   
    21     9    10 ar  
    22     9    34 1   
    23    10    11 1   
    24    11    12 1   
    25    12    15 1   
    26    12    35 1   
    27    12    36 1   
    28    13    14 ar  
    29    13    18 ar  
    30    13    23 ar  
    31    14    15 ar  
    32    14    37 1   
    33    15    16 ar  
    34    16    17 ar  
    35    16    38 1   
    36    17    18 ar  
    37    17    39 1   
    38    18    19 ar  
    39    19    20 ar  
    40    19    40 1   
    41    20    21 ar  
    42    20    41 1   
    43    21    22 1   
    44    21    23 ar  
    45    22    42 1   
    46    22    43 1   
@<TRIPOS>SUBSTRUCTURE
     1 M94         1 TEMP              0 ****  ****    0 ROOT
