@<TRIPOS>MOLECULE
M95
   45    47     1     0     0
SMALL
No Charge or Current Charge


@<TRIPOS>ATOM
      1 CAK          4.9560     1.1170    -1.2140 ca         1 M95      -0.102000
      2 CAG          4.6240     2.3740    -1.7510 ca         1 M95      -0.107500
      3 CAF          3.8430     3.2730    -1.0060 ca         1 M95      -0.109000
      4 CAH          3.3930     2.9150     0.2760 ca         1 M95      -0.107500
      5 CAL          3.7250     1.6590     0.8140 ca         1 M95      -0.102000
      6 CAU          4.5080     0.7530     0.0710 ca         1 M95      -0.082300
      7 CAP          4.8620    -0.6150     0.6470 c3         1 M95      -0.046100
      8 CAZ          3.9710    -1.7570     0.0970 c3         1 M95       0.113700
      9 CAO          4.3740    -3.1540     0.6450 c3         1 M95       0.147600
     10 OAC          4.0770    -3.2710     2.0490 oh         1 M95      -0.668000
     11 NAR          2.5480    -1.4850     0.3550 ns         1 M95      -0.488900
     12 CAT          1.6410    -1.0450    -0.5810 c          1 M95       0.597300
     13 OAA          1.9320    -0.8800    -1.7570 o          1 M95      -0.604100
     14 CAD          0.2750    -0.7940    -0.0420 ce         1 M95      -0.200200
     15 CAE         -0.7940    -0.3500    -0.7810 cf         1 M95      -0.254600
     16 CAV         -2.1610    -0.1060    -0.3480 cd         1 M95       0.728500
     17 NAQ         -3.2330    -0.2940    -1.2040 na         1 M95      -0.896200
     18 CAX         -4.4820     0.1060    -0.7570 ca         1 M95       0.310000
     19 CAM         -5.5190     0.2440    -1.6940 ca         1 M95      -0.169000
     20 CAI         -6.8100     0.6140    -1.2780 ca         1 M95      -0.051000
     21 CAJ         -7.0640     0.8400     0.0850 ca         1 M95      -0.150000
     22 CAN         -6.0290     0.6980     1.0230 ca         1 M95      -0.019000
     23 CAY         -4.7390     0.3310     0.5860 ca         1 M95      -0.223600
     24 CAW         -3.6060     0.1790     1.5070 c          1 M95       0.722100
     25 OAB         -3.7360     0.2330     2.7200 o          1 M95      -0.538100
     26 NAS         -2.3820    -0.0020     0.9440 nc         1 M95      -0.721100
     27 H1           5.5580     0.4260    -1.7980 ha         1 M95       0.109000
     28 H2           4.9720     2.6490    -2.7440 ha         1 M95       0.112000
     29 H3           3.5850     4.2450    -1.4220 ha         1 M95       0.111000
     30 H4           2.7870     3.6100     0.8530 ha         1 M95       0.112000
     31 H5           3.3700     1.3900     1.8050 ha         1 M95       0.109000
     32 H6           5.9110    -0.8470     0.4250 hc         1 M95       0.059200
     33 H7           4.7850    -0.5930     1.7410 hc         1 M95       0.059200
     34 H8           4.1260    -1.7930    -0.9890 h1         1 M95       0.086700
     35 H9           3.8260    -3.9220     0.0820 h1         1 M95       0.030700
     36 H10          5.4450    -3.3160     0.4640 h1         1 M95       0.030700
     37 H11          4.3480    -4.1750     2.3260 ho         1 M95       0.449000
     38 H12          2.2110    -1.6260     1.2990 hn         1 M95       0.328500
     39 H13          0.1410    -0.9820     1.0220 ha         1 M95       0.214000
     40 H14         -0.6460    -0.1910    -1.8480 ha         1 M95       0.203000
     41 H15         -3.0690    -0.5840    -2.1600 hn         1 M95       0.511000
     42 H16         -5.3280     0.0630    -2.7480 ha         1 M95       0.119000
     43 H17         -7.6100     0.7200    -2.0080 ha         1 M95       0.117000
     44 H18         -8.0620     1.1240     0.4130 ha         1 M95       0.122000
     45 H19         -6.2280     0.8760     2.0790 ha         1 M95       0.141000
@<TRIPOS>BOND
     1     1     2 ar  
     2     1     6 ar  
     3     1    27 1   
     4     2     3 ar  
     5     2    28 1   
     6     3     4 ar  
     7     3    29 1   
     8     4     5 ar  
     9     4    30 1   
    10     5     6 ar  
    11     5    31 1   
    12     6     7 1   
    13     7     8 1   
    14     7    32 1   
    15     7    33 1   
    16     8     9 1   
    17     8    11 1   
    18     8    34 1   
    19     9    10 1   
    20     9    35 1   
    21     9    36 1   
    22    10    37 1   
    23    11    12 1   
    24    11    38 1   
    25    12    13 2   
    26    12    14 1   
    27    14    15 2   
    28    14    39 1   
    29    15    16 1   
    30    15    40 1   
    31    16    17 1   
    32    16    26 2   
    33    17    18 1   
    34    17    41 1   
    35    18    19 ar  
    36    18    23 ar  
    37    19    20 ar  
    38    19    42 1   
    39    20    21 ar  
    40    20    43 1   
    41    21    22 ar  
    42    21    44 1   
    43    22    23 ar  
    44    22    45 1   
    45    23    24 1   
    46    24    25 2   
    47    24    26 1   
@<TRIPOS>SUBSTRUCTURE
     1 M95         1 TEMP              0 ****  ****    0 ROOT
