@<TRIPOS>MOLECULE
M95
   45    47     1     0     0
SMALL
bcc


@<TRIPOS>ATOM
      1 CAK          4.7860     1.1470    -1.2000 ca         1 M95      -0.120000
      2 CAG          4.3280     2.3260    -1.7710 ca         1 M95      -0.125500
      3 CAF          3.3930     3.1070    -1.1030 ca         1 M95      -0.127000
      4 CAH          2.9250     2.7000     0.1390 ca         1 M95      -0.125500
      5 CAL          3.3910     1.5210     0.7080 ca         1 M95      -0.120000
      6 CAU          4.3250     0.7290     0.0460 ca         1 M95      -0.082300
      7 CAP          4.7860    -0.5730     0.6350 c3         1 M95      -0.046100
      8 CAZ          3.9660    -1.7630     0.1090 c3         1 M95       0.113700
      9 CAO          4.4440    -3.0890     0.6770 c3         1 M95       0.124400
     10 OAC          4.2680    -3.0770     2.0740 oh         1 M95      -0.605800
     11 NAR          2.5590    -1.5700     0.3870 ns         1 M95      -0.555900
     12 CAT          1.6450    -1.2260    -0.5340 c          1 M95       0.664300
     13 OAA          1.8680    -1.1580    -1.7340 o          1 M95      -0.604100
     14 CAD          0.3040    -0.9310     0.0410 ce         1 M95      -0.150200
     15 CAE         -0.7160    -0.5950    -0.7430 cf         1 M95      -0.204600
     16 CAV         -2.0460    -0.2810    -0.2140 cd         1 M95       0.728500
     17 NAQ         -2.9850    -0.0110    -1.1360 na         1 M95      -0.702600
     18 CAX         -4.2720     0.3040    -0.7730 ca         1 M95       0.171600
     19 CAM         -5.2480     0.5860    -1.7310 ca         1 M95      -0.187000
     20 CAI         -6.5230     0.8960    -1.3100 ca         1 M95      -0.069000
     21 CAJ         -6.8400     0.9310     0.0510 ca         1 M95      -0.168000
     22 CAN         -5.8710     0.6520     0.9910 ca         1 M95      -0.037000
     23 CAY         -4.5710     0.3330     0.5900 ca         1 M95      -0.223600
     24 CAW         -3.5090     0.0240     1.5610 c          1 M95       0.722100
     25 OAB         -3.7150     0.0280     2.7650 o          1 M95      -0.538100
     26 NAS         -2.2640    -0.2720     1.0670 nc         1 M95      -0.721100
     27 H1           5.5130     0.5420    -1.7300 ha         1 M95       0.127000
     28 H2           4.7020     2.6360    -2.7390 ha         1 M95       0.130000
     29 H3           3.0340     4.0270    -1.5460 ha         1 M95       0.129000
     30 H4           2.1980     3.3020     0.6690 ha         1 M95       0.130000
     31 H5           3.0240     1.2170     1.6810 ha         1 M95       0.127000
     32 H6           5.8360    -0.7500     0.3880 hc         1 M95       0.059200
     33 H7           4.7170    -0.5370     1.7240 hc         1 M95       0.059200
     34 H8           4.0800    -1.8190    -0.9740 h1         1 M95       0.086700
     35 H9           3.8770    -3.8990     0.2030 h1         1 M95       0.030700
     36 H10          5.4970    -3.2230     0.3980 h1         1 M95       0.030700
     37 H11          4.5140    -3.9390     2.4200 ho         1 M95       0.410000
     38 H12          2.2780    -1.5930     1.3550 hn         1 M95       0.328500
     39 H13          0.1690    -0.9840     1.1160 ha         1 M95       0.164000
     40 H14         -0.5820    -0.5450    -1.8180 ha         1 M95       0.153000
     41 H15         -2.7470    -0.0470    -2.1170 hn         1 M95       0.455800
     42 H16         -5.0010     0.5590    -2.7840 ha         1 M95       0.137000
     43 H17         -7.2850     1.1160    -2.0460 ha         1 M95       0.135000
     44 H18         -7.8460     1.1790     0.3640 ha         1 M95       0.140000
     45 H19         -6.1060     0.6780     2.0460 ha         1 M95       0.159000
@<TRIPOS>BOND
     1     1     2 ar  
     2     1     6 ar  
     3     1    27 1   
     4     2     3 ar  
     5     2    28 1   
     6     3     4 ar  
     7     3    29 1   
     8     4     5 ar  
     9     4    30 1   
    10     5     6 ar  
    11     5    31 1   
    12     6     7 1   
    13     7     8 1   
    14     7    32 1   
    15     7    33 1   
    16     8     9 1   
    17     8    11 1   
    18     8    34 1   
    19     9    10 1   
    20     9    35 1   
    21     9    36 1   
    22    10    37 1   
    23    11    12 1   
    24    11    38 1   
    25    12    13 2   
    26    12    14 1   
    27    14    15 2   
    28    14    39 1   
    29    15    16 1   
    30    15    40 1   
    31    16    17 1   
    32    16    26 2   
    33    17    18 1   
    34    17    41 1   
    35    18    19 ar  
    36    18    23 ar  
    37    19    20 ar  
    38    19    42 1   
    39    20    21 ar  
    40    20    43 1   
    41    21    22 ar  
    42    21    44 1   
    43    22    23 ar  
    44    22    45 1   
    45    23    24 1   
    46    24    25 2   
    47    24    26 1   
@<TRIPOS>SUBSTRUCTURE
     1 M95         1 TEMP              0 ****  ****    0 ROOT
