@<TRIPOS>MOLECULE
M96
   26    26     1     0     0
SMALL
abcg2


@<TRIPOS>ATOM
      1 C1          -0.5830     1.7570     0.0570 c6         1 M96       0.138300
      2 O1          -0.4630     2.0320     1.4380 oh         1 M96      -0.708000
      3 C7           0.7550     1.2390    -0.4430 c6         1 M96      -0.062400
      4 C5           1.1310    -0.1220     0.1460 c6         1 M96      -0.056700
      5 C6           2.4580    -0.6200    -0.4120 c3         1 M96       0.167600
      6 O6           3.4720     0.3070    -0.0860 oh         1 M96      -0.666000
      7 C4           0.0210    -1.1330    -0.1320 c6         1 M96       0.182300
      8 O4           0.3500    -2.3530     0.4980 oh         1 M96      -0.727000
      9 C3          -1.3200    -0.6200     0.3880 c6         1 M96       0.145300
     10 O3          -2.2840    -1.6120     0.1040 oh         1 M96      -0.715000
     11 C2          -1.6950     0.7330    -0.2090 c6         1 M96       0.109300
     12 O2          -1.9070     0.5670    -1.5920 oh         1 M96      -0.697000
     13 H1          -0.8310     2.6780    -0.4920 h1         1 M96       0.028700
     14 H2          -1.3070     2.3680     1.7580 ho         1 M96       0.498000
     15 H3           0.7040     1.1600    -1.5330 hc         1 M96       0.063700
     16 H4           1.5310     1.9750    -0.2260 hc         1 M96       0.063700
     17 H5           1.2350    -0.0270     1.2330 hc         1 M96       0.083700
     18 H6           2.6860    -1.6070     0.0040 h1         1 M96       0.027700
     19 H7           2.3620    -0.7430    -1.5010 h1         1 M96       0.027700
     20 H8           4.2970    -0.0110    -0.4620 ho         1 M96       0.442000
     21 H9          -0.0540    -1.2760    -1.2220 h1         1 M96       0.055700
     22 H10         -0.3980    -2.9500     0.3870 ho         1 M96       0.519000
     23 H11         -1.2200    -0.4810     1.4730 h1         1 M96       0.054700
     24 H12         -3.0500    -1.4680     0.6680 ho         1 M96       0.505000
     25 H13         -2.6200     1.0820     0.2810 h1         1 M96       0.021700
     26 H14         -2.1590     1.4180    -1.9640 ho         1 M96       0.499000
@<TRIPOS>BOND
     1     1     2 1   
     2     1     3 1   
     3     1    11 1   
     4     1    13 1   
     5     2    14 1   
     6     3     4 1   
     7     3    15 1   
     8     3    16 1   
     9     4     5 1   
    10     4     7 1   
    11     4    17 1   
    12     5     6 1   
    13     5    18 1   
    14     5    19 1   
    15     6    20 1   
    16     7     8 1   
    17     7     9 1   
    18     7    21 1   
    19     8    22 1   
    20     9    10 1   
    21     9    11 1   
    22     9    23 1   
    23    10    24 1   
    24    11    12 1   
    25    11    25 1   
    26    12    26 1   
@<TRIPOS>SUBSTRUCTURE
     1 M96         1 TEMP              0 ****  ****    0 ROOT
