@<TRIPOS>MOLECULE
M96
   26    26     1     0     0
SMALL
No Charge or Current Charge


@<TRIPOS>ATOM
      1 C1          -0.6190     1.7530     0.1360 c6         1 M96       0.138300
      2 O1          -0.4560     2.0650     1.5290 oh         1 M96      -0.708000
      3 C7           0.7340     1.2540    -0.4430 c6         1 M96      -0.062400
      4 C5           1.1680    -0.1280     0.1420 c6         1 M96      -0.056700
      5 C6           2.5180    -0.6110    -0.4710 c3         1 M96       0.167600
      6 O6           3.5920     0.3040    -0.2120 oh         1 M96      -0.666000
      7 C4           0.0340    -1.1740    -0.0750 c6         1 M96       0.182300
      8 O4           0.3670    -2.4410     0.5140 oh         1 M96      -0.727000
      9 C3          -1.3250    -0.6860     0.5260 c6         1 M96       0.145300
     10 O3          -2.3540    -1.6560     0.2590 oh         1 M96      -0.715000
     11 C2          -1.7520     0.6900    -0.0690 c6         1 M96       0.109300
     12 O2          -2.0880     0.5270    -1.4640 oh         1 M96      -0.697000
     13 H1          -0.9010     2.6700    -0.4050 h1         1 M96       0.028700
     14 H2          -1.2030     2.6540     1.7840 ho         1 M96       0.498000
     15 H3           0.6550     1.1820    -1.5360 hc         1 M96       0.063700
     16 H4           1.5070     2.0090    -0.2470 hc         1 M96       0.063700
     17 H5           1.3410    -0.0190     1.2220 hc         1 M96       0.083700
     18 H6           2.7670    -1.5950    -0.0510 h1         1 M96       0.027700
     19 H7           2.3840    -0.7410    -1.5540 h1         1 M96       0.027700
     20 H8           4.4010    -0.0840    -0.6150 ho         1 M96       0.442000
     21 H9          -0.1020    -1.3010    -1.1600 h1         1 M96       0.055700
     22 H10         -0.5070    -2.8860     0.6360 ho         1 M96       0.519000
     23 H11         -1.1980    -0.5670     1.6130 h1         1 M96       0.054700
     24 H12         -2.7500    -1.3430    -0.5910 ho         1 M96       0.505000
     25 H13         -2.6450     1.0350     0.4740 h1         1 M96       0.021700
     26 H14         -2.4570     1.3850    -1.7790 ho         1 M96       0.499000
@<TRIPOS>BOND
     1     1     2 1   
     2     1     3 1   
     3     1    11 1   
     4     1    13 1   
     5     2    14 1   
     6     3     4 1   
     7     3    15 1   
     8     3    16 1   
     9     4     5 1   
    10     4     7 1   
    11     4    17 1   
    12     5     6 1   
    13     5    18 1   
    14     5    19 1   
    15     6    20 1   
    16     7     8 1   
    17     7     9 1   
    18     7    21 1   
    19     8    22 1   
    20     9    10 1   
    21     9    11 1   
    22     9    23 1   
    23    10    24 1   
    24    11    12 1   
    25    11    25 1   
    26    12    26 1   
@<TRIPOS>SUBSTRUCTURE
     1 M96         1 TEMP              0 ****  ****    0 ROOT
