@<TRIPOS>MOLECULE
M97
   44    49     1     0     0
SMALL
bcc


@<TRIPOS>ATOM
      1 C1          -1.2390    -1.6520    -0.1760 c5         1 M97      -0.051500
      2 N1          -4.2390     0.1580     0.9460 na         1 M97      -0.157400
      3 O1          -2.5790    -3.5960    -0.8200 o          1 M97      -0.530500
      4 C2           0.8920    -0.6020     0.7290 cc         1 M97       0.022700
      5 N2          -0.5200    -3.8440     0.1530 ns         1 M97      -0.615500
      6 O2           1.5030    -3.4890     1.1800 o          1 M97      -0.555500
      7 C3           1.0320     0.4560     1.5540 cd         1 M97      -0.145200
      8 N3           2.0100     1.3240     1.0240 na         1 M97       0.109800
      9 C4          -2.3580    -0.7280     0.1320 cc         1 M97      -0.183400
     10 C5          -3.5200    -0.9910     0.8040 cd         1 M97      -0.052100
     11 C6          -0.1110    -1.6790     0.8780 c5         1 M97      -0.120400
     12 C7          -1.5890    -3.1220    -0.3300 c          1 M97       0.710500
     13 C8           0.4430    -3.0890     0.7740 c          1 M97       0.714500
     14 C9          -3.5630     1.1960     0.3740 ca         1 M97      -0.047200
     15 C10         -2.3620     0.6750    -0.1530 ca         1 M97      -0.091800
     16 C11         -1.4710     1.5380    -0.8030 ca         1 M97      -0.111000
     17 C12         -1.7940     2.8760    -0.9060 ca         1 M97      -0.149000
     18 C13         -2.9940     3.3750    -0.3710 ca         1 M97      -0.109000
     19 C14         -3.8930     2.5470     0.2730 ca         1 M97      -0.123000
     20 C15          3.4400     1.3830    -0.9200 ca         1 M97      -0.066000
     21 C16          3.9440     2.6130    -0.4550 ca         1 M97       0.046000
     22 C17          3.4600     3.1440     0.7280 ca         1 M97      -0.188000
     23 C18          2.4830     2.4850     1.4690 ca         1 M97       0.056700
     24 C19          2.4700     0.7870    -0.1340 ca         1 M97      -0.042300
     25 C20          1.8210    -0.4190    -0.3820 ca         1 M97      -0.099000
     26 C21          2.1830    -1.0920    -1.5280 ca         1 M97       0.041000
     27 C22          3.1690    -0.5280    -2.3720 ca         1 M97      -0.131000
     28 C23          3.7880     0.6700    -2.0930 ca         1 M97      -0.028000
     29 H1          -0.8070    -1.3690    -1.1460 hc         1 M97       0.085700
     30 HN2         -0.4520    -4.8500     0.0590 hn         1 M97       0.359500
     31 H3           0.5270     0.7060     2.4730 h4         1 M97       0.212000
     32 H5          -3.8990    -1.9220     1.1930 h4         1 M97       0.180000
     33 H6          -0.5680    -1.6090     1.8710 hc         1 M97       0.111700
     34 H11         -0.5440     1.1680    -1.2260 ha         1 M97       0.113000
     35 H12         -1.1150     3.5540    -1.4060 ha         1 M97       0.128000
     36 H13         -3.2190     4.4300    -0.4660 ha         1 M97       0.141000
     37 H14         -4.8170     2.9330     0.6840 ha         1 M97       0.146000
     38 H16          4.7020     3.1430    -1.0160 ha         1 M97       0.182000
     39 H17          3.8320     4.0860     1.1010 ha         1 M97       0.193000
     40 H18          2.0840     2.8720     2.3950 h4         1 M97       0.204000
     41 H21          1.7380    -2.0390    -1.8050 ha         1 M97       0.172000
     42 H22          3.4430    -1.0650    -3.2680 ha         1 M97       0.175000
     43 H23          4.5370     1.0690    -2.7640 ha         1 M97       0.172000
     44 HN1         -5.1360     0.2190     1.3980 hn         1 M97       0.315700
@<TRIPOS>BOND
     1     1     9 1   
     2     1    11 1   
     3     1    12 1   
     4     1    29 1   
     5     2    10 1   
     6     2    14 1   
     7     2    44 1   
     8     3    12 2   
     9     4     7 2   
    10     4    11 1   
    11     4    25 1   
    12     5    12 1   
    13     5    13 1   
    14     5    30 1   
    15     6    13 2   
    16     7     8 1   
    17     7    31 1   
    18     8    23 1   
    19     8    24 2   
    20     9    10 2   
    21     9    15 1   
    22    10    32 1   
    23    11    13 1   
    24    11    33 1   
    25    14    15 ar  
    26    14    19 ar  
    27    15    16 ar  
    28    16    17 ar  
    29    16    34 1   
    30    17    18 ar  
    31    17    35 1   
    32    18    19 ar  
    33    18    36 1   
    34    19    37 1   
    35    20    21 ar  
    36    20    24 ar  
    37    20    28 ar  
    38    21    22 ar  
    39    21    38 1   
    40    22    23 ar  
    41    22    39 1   
    42    23    40 1   
    43    24    25 ar  
    44    25    26 ar  
    45    26    27 ar  
    46    26    41 1   
    47    27    28 ar  
    48    27    42 1   
    49    28    43 1   
@<TRIPOS>SUBSTRUCTURE
     1 M97         1 TEMP              0 ****  ****    0 ROOT
