@<TRIPOS>MOLECULE
M97
   44    49     1     0     0
SMALL
No Charge or Current Charge


@<TRIPOS>ATOM
      1 C1          -1.0930    -1.0260    -0.4350 c5         1 M97      -0.051500
      2 N1          -4.7180    -0.4570     0.3980 na         1 M97      -0.207700
      3 O1          -1.3950    -3.0330    -1.9200 o          1 M97      -0.455000
      4 C2           1.1050    -0.2510     0.5970 cc         1 M97       0.022700
      5 N2          -0.4630    -3.1450     0.1620 ns         1 M97      -0.481500
      6 O2           0.4700    -2.9630     2.2370 o          1 M97      -0.480000
      7 C3           1.3960     0.9930     1.1810 cd         1 M97      -0.127200
      8 N3           2.6850     1.3530     0.7550 na         1 M97       0.160500
      9 C4          -2.4790    -0.5030    -0.0990 cc         1 M97      -0.183400
     10 C5          -3.6230    -1.2870     0.0500 cd         1 M97      -0.102100
     11 C6          -0.1930    -0.9840     0.8560 c5         1 M97      -0.120400
     12 C7          -1.0710    -2.5090    -0.8670 c          1 M97       0.568000
     13 C8           0.0390    -2.4590     1.2140 c          1 M97       0.572000
     14 C9          -4.2180     0.8310     0.4590 ca         1 M97      -0.047200
     15 C10         -2.8840     0.8450     0.1670 ca         1 M97      -0.091800
     16 C11         -2.1380     2.0320     0.1550 ca         1 M97      -0.093000
     17 C12         -2.8070     3.2350     0.4620 ca         1 M97      -0.131000
     18 C13         -4.1890     3.2240     0.7690 ca         1 M97      -0.091000
     19 C14         -4.9100     2.0110     0.7680 ca         1 M97      -0.105000
     20 C15          4.1120     0.7450    -1.0900 ca         1 M97      -0.066000
     21 C16          4.7640     1.9980    -0.9730 ca         1 M97       0.064000
     22 C17          4.2510     2.9690    -0.0590 ca         1 M97      -0.170000
     23 C18          3.1400     2.6630     0.7770 ca         1 M97       0.024000
     24 C19          3.0530     0.5040    -0.2280 ca         1 M97      -0.042300
     25 C20          2.1920    -0.5360    -0.3310 ca         1 M97      -0.099000
     26 C21          2.4160    -1.5350    -1.2950 ca         1 M97       0.059000
     27 C22          3.5490    -1.3910    -2.1410 ca         1 M97      -0.113000
     28 C23          4.3910    -0.2460    -2.0550 ca         1 M97      -0.010000
     29 H1          -0.6920    -0.4380    -1.2690 hc         1 M97       0.085700
     30 HN2         -0.3810    -4.1500     0.1430 hn         1 M97       0.359500
     31 H3           0.8150     1.6000     1.8650 h4         1 M97       0.194000
     32 H5          -3.7440    -2.3630    -0.0550 h4         1 M97       0.230000
     33 H6          -0.6930    -0.5270     1.7170 hc         1 M97       0.111700
     34 H11         -1.0790     2.0260    -0.0870 ha         1 M97       0.095000
     35 H12         -2.2590     4.1740     0.4630 ha         1 M97       0.110000
     36 H13         -4.6990     4.1560     1.0050 ha         1 M97       0.123000
     37 H14         -5.9730     1.9930     1.0010 ha         1 M97       0.128000
     38 H16          5.5990     2.2470    -1.6260 ha         1 M97       0.164000
     39 H17          4.7010     3.9590    -0.0170 ha         1 M97       0.175000
     40 H18          2.6990     3.3690     1.4810 h4         1 M97       0.186000
     41 H21          1.7450    -2.3810    -1.4080 ha         1 M97       0.154000
     42 H22          3.7500    -2.1480    -2.8950 ha         1 M97       0.157000
     43 H23          5.2180    -0.1220    -2.7510 ha         1 M97       0.154000
     44 HN1         -5.6760    -0.7500     0.5710 hn         1 M97       0.366000
@<TRIPOS>BOND
     1     1     9 1   
     2     1    11 1   
     3     1    12 1   
     4     1    29 1   
     5     2    10 1   
     6     2    14 1   
     7     2    44 1   
     8     3    12 2   
     9     4     7 2   
    10     4    11 1   
    11     4    25 1   
    12     5    12 1   
    13     5    13 1   
    14     5    30 1   
    15     6    13 2   
    16     7     8 1   
    17     7    31 1   
    18     8    23 1   
    19     8    24 2   
    20     9    10 2   
    21     9    15 1   
    22    10    32 1   
    23    11    13 1   
    24    11    33 1   
    25    14    15 ar  
    26    14    19 ar  
    27    15    16 ar  
    28    16    17 ar  
    29    16    34 1   
    30    17    18 ar  
    31    17    35 1   
    32    18    19 ar  
    33    18    36 1   
    34    19    37 1   
    35    20    21 ar  
    36    20    24 ar  
    37    20    28 ar  
    38    21    22 ar  
    39    21    38 1   
    40    22    23 ar  
    41    22    39 1   
    42    23    40 1   
    43    24    25 ar  
    44    25    26 ar  
    45    26    27 ar  
    46    26    41 1   
    47    27    28 ar  
    48    27    42 1   
    49    28    43 1   
@<TRIPOS>SUBSTRUCTURE
     1 M97         1 TEMP              0 ****  ****    0 ROOT
