@<TRIPOS>MOLECULE
M98
   56    59     1     0     0
SMALL
No Charge or Current Charge


@<TRIPOS>ATOM
      1 F1           4.3780    -3.0850     2.8170 f          1 M98      -0.136000
      2 F2           2.7100    -4.4360     2.4310 f          1 M98      -0.136000
      3 C1           3.8670    -3.9570     1.9160 c3         1 M98       0.383300
      4 O1           3.6510    -3.3240     0.6360 os         1 M98      -0.370100
      5 C12          5.4890    -1.7640    -3.2130 cx         1 M98      -0.136400
      6 C13          4.9890    -0.4490    -2.6630 cx         1 M98      -0.136400
      7 C8           4.7330    -1.7320    -1.9080 cx         1 M98       0.096300
      8 O2           3.4210    -2.2570    -1.9290 os         1 M98      -0.289100
      9 C2           2.8180    -2.2300     0.4260 ca         1 M98       0.060100
     10 C3           2.7120    -1.7040    -0.8840 ca         1 M98       0.156100
     11 C4           1.8650    -0.6170    -1.1520 ca         1 M98      -0.186000
     12 C5           1.1290    -0.0120    -0.1180 ca         1 M98      -0.055300
     13 C6           1.2440    -0.5180     1.1910 ca         1 M98      -0.130000
     14 C7           2.0740    -1.6200     1.4640 ca         1 M98      -0.069000
     15 C9           0.2480     1.2030    -0.4100 c3         1 M98      -0.046700
     16 C10         -1.1660     1.0050     0.0940 cc         1 M98       0.440700
     17 C11         -2.9820     1.2070     1.3600 cd         1 M98       0.342900
     18 N1          -1.6750     1.6200     1.1540 nd         1 M98      -0.645000
     19 S1          -2.2240    -0.1140    -0.7200 ss         1 M98       0.056600
     20 C14         -3.4580     0.2680     0.4620 cc         1 M98      -0.343300
     21 C15         -4.8450    -0.3680     0.4020 c3         1 M98       0.141300
     22 O3          -4.6350    -1.7460     0.0270 oh         1 M98      -0.621000
     23 C16         -5.7190     0.3360    -0.7130 c3         1 M98       0.309500
     24 F5          -6.9620    -0.1930    -0.7990 f          1 M98      -0.094500
     25 F6          -5.8560     1.6620    -0.4730 f          1 M98      -0.094500
     26 F7          -5.1510     0.2130    -1.9370 f          1 M98      -0.094500
     27 C17         -5.5810    -0.3550     1.8070 c3         1 M98       0.309500
     28 F8          -4.7820    -0.8670     2.7740 f          1 M98      -0.094500
     29 F9          -5.9310     0.8950     2.1930 f          1 M98      -0.094500
     30 F10         -6.7110    -1.1020     1.7930 f          1 M98      -0.094500
     31 C18          0.9240     2.5050     0.0980 c3         1 M98      -0.018100
     32 C19          2.3060     2.7090    -0.5110 ca         1 M98      -0.050300
     33 C20          2.4490     3.2990    -1.7820 ca         1 M98      -0.140000
     34 C21          3.7280     3.4570    -2.3450 ca         1 M98      -0.087000
     35 C22          3.4590     2.2820     0.1780 ca         1 M98      -0.206000
     36 C23          4.8580     3.0210    -1.6290 ca         1 M98      -0.174300
     37 N2           4.7240     2.4310    -0.3770 na         1 M98       0.474300
     38 H1           4.5670    -4.7920     1.8090 h3         1 M98       0.106700
     39 H122         4.9830    -2.1770    -4.0820 hc         1 M98       0.083450
     40 H131         4.1490     0.0260    -3.1620 hc         1 M98       0.083450
     41 H132         5.7230     0.2370    -2.2510 hc         1 M98       0.083450
     42 H8           5.2920    -1.9170    -0.9890 h1         1 M98       0.083700
     43 H4           1.7980    -0.2340    -2.1670 ha         1 M98       0.124000
     44 H6           0.6910    -0.0560     2.0060 ha         1 M98       0.133000
     45 H7           2.1260    -1.9790     2.4870 ha         1 M98       0.138000
     46 H9           0.1650     1.3140    -1.4980 hc         1 M98       0.067700
     47 H11         -3.5340     1.6340     2.1890 h4         1 M98       0.061100
     48 HO3         -3.9100    -2.0890     0.5920 ho         1 M98       0.484000
     49 H181         0.2820     3.3620    -0.1410 hc         1 M98       0.075200
     50 H182         0.9970     2.4770     1.1930 hc         1 M98       0.075200
     51 H20          1.5710     3.6290    -2.3350 ha         1 M98       0.127000
     52 H21          3.8430     3.9130    -3.3270 ha         1 M98       0.133000
     53 H22          3.4050     1.8010     1.1520 h4         1 M98       0.172000
     54 H23          5.8670     3.1230    -2.0230 h4         1 M98       0.168000
     55 O4           5.7230     2.0380     0.2370 o          1 M98      -0.511000
     56 H121         6.5570    -1.9600    -3.1700 hc         1 M98       0.083450
@<TRIPOS>BOND
     1     1     3 1   
     2     2     3 1   
     3     3     4 1   
     4     3    38 1   
     5     4     9 1   
     6     5     6 1   
     7     5     7 1   
     8     5    39 1   
     9     5    56 1   
    10     6     7 1   
    11     6    40 1   
    12     6    41 1   
    13     7     8 1   
    14     7    42 1   
    15     8    10 1   
    16     9    10 ar  
    17     9    14 ar  
    18    10    11 ar  
    19    11    12 ar  
    20    11    43 1   
    21    12    13 ar  
    22    12    15 1   
    23    13    14 ar  
    24    13    44 1   
    25    14    45 1   
    26    15    16 1   
    27    15    31 1   
    28    15    46 1   
    29    16    18 2   
    30    16    19 1   
    31    17    18 1   
    32    17    20 2   
    33    17    47 1   
    34    19    20 1   
    35    20    21 1   
    36    21    22 1   
    37    21    23 1   
    38    21    27 1   
    39    22    48 1   
    40    23    24 1   
    41    23    25 1   
    42    23    26 1   
    43    27    28 1   
    44    27    29 1   
    45    27    30 1   
    46    31    32 1   
    47    31    49 1   
    48    31    50 1   
    49    32    33 ar  
    50    32    35 ar  
    51    33    34 ar  
    52    33    51 1   
    53    34    36 ar  
    54    34    52 1   
    55    35    37 1   
    56    35    53 1   
    57    36    37 2   
    58    36    54 1   
    59    37    55 1   
@<TRIPOS>SUBSTRUCTURE
     1 M98         1 TEMP              0 ****  ****    0 ROOT
