@<TRIPOS>MOLECULE
M98
   56    59     1     0     0
SMALL
abcg2


@<TRIPOS>ATOM
      1 F1           2.7400    -4.2490     2.3440 f          1 M98      -0.136000
      2 F2           3.3310    -4.3610     0.2760 f          1 M98      -0.136000
      3 C1           3.7640    -3.9780     1.4970 c3         1 M98       0.383300
      4 O1           4.0830    -2.6610     1.5210 os         1 M98      -0.370100
      5 C12          5.0710    -2.1180    -3.2640 cx         1 M98      -0.136400
      6 C13          3.6280    -1.7150    -3.4080 cx         1 M98      -0.136400
      7 C8           4.4430    -1.2310    -2.2550 cx         1 M98       0.096300
      8 O2           4.2390    -1.7880    -0.9900 os         1 M98      -0.289100
      9 C2           3.1370    -1.7630     1.0690 ca         1 M98       0.060100
     10 C3           3.2300    -1.3010    -0.2470 ca         1 M98       0.156100
     11 C4           2.3070    -0.3610    -0.6910 ca         1 M98      -0.186000
     12 C5           1.3230     0.1310     0.1610 ca         1 M98      -0.055300
     13 C6           1.2570    -0.3230     1.4700 ca         1 M98      -0.130000
     14 C7           2.1610    -1.2770     1.9170 ca         1 M98      -0.069000
     15 C9           0.4190     1.2370    -0.3400 c3         1 M98      -0.046700
     16 C10         -0.9990     1.0350     0.0970 cc         1 M98       0.440700
     17 C11         -2.8190     1.1560     1.3220 cd         1 M98       0.342900
     18 N1          -1.5270     1.5510     1.1610 nd         1 M98      -0.645000
     19 S1          -2.0620     0.0200    -0.7980 ss         1 M98       0.056600
     20 C14         -3.2940     0.3110     0.3680 cc         1 M98      -0.343300
     21 C15         -4.6560    -0.2940     0.1490 c3         1 M98       0.141300
     22 O3          -4.6280    -1.3100    -0.7970 oh         1 M98      -0.621000
     23 C16         -5.5740     0.7820    -0.4750 c3         1 M98       0.309500
     24 F5          -6.7910     0.3170    -0.7440 f          1 M98      -0.094500
     25 F6          -5.7050     1.8350     0.3280 f          1 M98      -0.094500
     26 F7          -5.0430     1.2040    -1.6200 f          1 M98      -0.094500
     27 C17         -5.2250    -0.8520     1.4780 c3         1 M98       0.309500
     28 F8          -4.3760    -1.7560     1.9690 f          1 M98      -0.094500
     29 F9          -5.3960     0.0910     2.4030 f          1 M98      -0.094500
     30 F10         -6.3940    -1.4580     1.2970 f          1 M98      -0.094500
     31 C18          0.9380     2.6180     0.1140 c3         1 M98      -0.018100
     32 C19          2.3480     2.8250    -0.3530 ca         1 M98      -0.050300
     33 C20          2.6350     3.1210    -1.6810 ca         1 M98      -0.140000
     34 C21          3.9620     3.2090    -2.0660 ca         1 M98      -0.087000
     35 C22          3.3920     2.6430     0.5310 ca         1 M98      -0.206000
     36 C23          4.9690     3.0130    -1.1480 ca         1 M98      -0.174300
     37 N2           4.6870     2.7390     0.1470 na         1 M98       0.474300
     38 H1           4.6400    -4.5560     1.7840 h3         1 M98       0.106700
     39 H122         5.2760    -3.1410    -2.9750 hc         1 M98       0.083450
     40 H131         2.8780    -2.4730    -3.2150 hc         1 M98       0.083450
     41 H132         3.3590    -0.9970    -4.1720 hc         1 M98       0.083450
     42 H8           4.7320    -0.1820    -2.2350 h1         1 M98       0.083700
     43 H4           2.3510     0.0040    -1.7080 ha         1 M98       0.124000
     44 H6           0.5110     0.0640     2.1520 ha         1 M98       0.133000
     45 H7           2.1210    -1.6190     2.9420 ha         1 M98       0.138000
     46 H9           0.4410     1.2180    -1.4340 hc         1 M98       0.067700
     47 H11         -3.3720     1.5310     2.1700 h4         1 M98       0.061100
     48 HO3         -4.0520    -2.0340    -0.5190 ho         1 M98       0.484000
     49 H181         0.2910     3.3930    -0.3020 hc         1 M98       0.075200
     50 H182         0.8780     2.6920     1.2000 hc         1 M98       0.075200
     51 H20          1.8410     3.2720    -2.4000 ha         1 M98       0.127000
     52 H21          4.2350     3.4320    -3.0880 ha         1 M98       0.133000
     53 H22          3.2410     2.4090     1.5750 h4         1 M98       0.172000
     54 H23          6.0190     3.0710    -1.3940 h4         1 M98       0.168000
     55 O4           5.6220     2.5690     0.9910 o          1 M98      -0.511000
     56 H121         5.8030    -1.6830    -3.9320 hc         1 M98       0.083450
@<TRIPOS>BOND
     1     1     3 1   
     2     2     3 1   
     3     3     4 1   
     4     3    38 1   
     5     4     9 1   
     6     5     6 1   
     7     5     7 1   
     8     5    39 1   
     9     5    56 1   
    10     6     7 1   
    11     6    40 1   
    12     6    41 1   
    13     7     8 1   
    14     7    42 1   
    15     8    10 1   
    16     9    10 ar  
    17     9    14 ar  
    18    10    11 ar  
    19    11    12 ar  
    20    11    43 1   
    21    12    13 ar  
    22    12    15 1   
    23    13    14 ar  
    24    13    44 1   
    25    14    45 1   
    26    15    16 1   
    27    15    31 1   
    28    15    46 1   
    29    16    18 2   
    30    16    19 1   
    31    17    18 1   
    32    17    20 2   
    33    17    47 1   
    34    19    20 1   
    35    20    21 1   
    36    21    22 1   
    37    21    23 1   
    38    21    27 1   
    39    22    48 1   
    40    23    24 1   
    41    23    25 1   
    42    23    26 1   
    43    27    28 1   
    44    27    29 1   
    45    27    30 1   
    46    31    32 1   
    47    31    49 1   
    48    31    50 1   
    49    32    33 ar  
    50    32    35 ar  
    51    33    34 ar  
    52    33    51 1   
    53    34    36 ar  
    54    34    52 1   
    55    35    37 1   
    56    35    53 1   
    57    36    37 2   
    58    36    54 1   
    59    37    55 1   
@<TRIPOS>SUBSTRUCTURE
     1 M98         1 TEMP              0 ****  ****    0 ROOT
