@<TRIPOS>MOLECULE
M99
   56    59     1     0     0
SMALL
No Charge or Current Charge


@<TRIPOS>ATOM
      1 F1          -2.2520     0.4270     3.2570 f          1 M99      -0.115500
      2 F2          -1.5670     0.7590     1.2300 f          1 M99      -0.115500
      3 C1          -1.4520    -0.0740     2.2900 c3         1 M99       0.395300
      4 O1          -0.0910    -0.1270     2.7520 os         1 M99      -0.369100
      5 C12          2.9260     2.5330     4.2140 cx         1 M99      -0.133900
      6 C13          2.3160     2.5170     2.8310 cx         1 M99      -0.133900
      7 C8           3.1760     1.3640     3.2940 cx         1 M99       0.083300
      8 O2           2.5260     0.1500     3.6210 os         1 M99      -0.288100
      9 C2           0.9330    -0.6830     2.0020 ca         1 M99       0.094100
     10 C3           2.2640    -0.5420     2.4560 ca         1 M99       0.148100
     11 C4           3.3260    -1.1140     1.7300 ca         1 M99      -0.160000
     12 C5           3.0810    -1.7990     0.5260 ca         1 M99      -0.068300
     13 C6           1.7560    -1.9340     0.0700 ca         1 M99      -0.119000
     14 C7           0.6870    -1.3890     0.8020 ca         1 M99      -0.128000
     15 C9           4.2420    -2.3680    -0.2920 c3         1 M99      -0.039700
     16 C10          4.9500    -3.4750     0.4590 cc         1 M99       0.419700
     17 C11          6.5160    -4.5530     1.6100 cd         1 M99       0.332900
     18 N1           6.1750    -3.3750     0.9620 nd         1 M99      -0.647000
     19 S1           4.1270    -4.9840     0.7430 ss         1 M99       0.106600
     20 C14          5.5480    -5.5390     1.5990 cc         1 M99      -0.307300
     21 C15          5.6020    -6.9290     2.2290 c3         1 M99       0.153300
     22 O3           4.8450    -7.8030     1.3560 oh         1 M99      -0.628000
     23 C16          4.9060    -6.8970     3.6490 c3         1 M99       0.286000
     24 F5           3.6080    -6.5220     3.5520 f          1 M99      -0.096167
     25 F6           5.5120    -6.0180     4.4830 f          1 M99      -0.096167
     26 F7           4.9250    -8.1100     4.2490 f          1 M99      -0.096167
     27 C17          7.0830    -7.4900     2.3130 c3         1 M99       0.286000
     28 F8           7.8400    -6.8200     3.2120 f          1 M99      -0.096167
     29 F9           7.7040    -7.3970     1.1130 f          1 M99      -0.096167
     30 F10          7.1030    -8.7970     2.6680 f          1 M99      -0.096167
     31 C18          5.1840    -1.2350    -0.7880 c3         1 M99      -0.021100
     32 C19          4.4270    -0.1390    -1.5290 ca         1 M99      -0.049300
     33 C20          4.0270    -0.3230    -2.8670 ca         1 M99      -0.132000
     34 C21          3.3020     0.6850    -3.5290 ca         1 M99      -0.083000
     35 C22          4.0920     1.0630    -0.8740 ca         1 M99      -0.210000
     36 C23          2.9810     1.8710    -2.8440 ca         1 M99      -0.162300
     37 N2           3.3710     2.0590    -1.5220 na         1 M99       0.472300
     38 H11         -1.8140    -1.0690     2.0130 h3         1 M99       0.058700
     39 H122         2.2650     2.3770     5.0630 hc         1 M99       0.087950
     40 H131         1.2450     2.3540     2.7510 hc         1 M99       0.087950
     41 H132         2.7330     3.1830     2.0810 hc         1 M99       0.087950
     42 H88          4.1740     1.2550     2.8670 h1         1 M99       0.082700
     43 H44          4.3430    -1.0130     2.1010 ha         1 M99       0.139000
     44 H66          1.5480    -2.4600    -0.8600 ha         1 M99       0.116000
     45 H77         -0.3210    -1.5210     0.4190 ha         1 M99       0.133000
     46 H99          3.8310    -2.8300    -1.1980 hc         1 M99       0.064700
     47 H111         7.4900    -4.6220     2.0770 h4         1 M99       0.058100
     48 H181         5.9510    -1.6660    -1.4430 hc         1 M99       0.072200
     49 H182         5.7240    -0.8030     0.0630 hc         1 M99       0.072200
     50 H220         4.2710    -1.2450    -3.3910 ha         1 M99       0.126000
     51 H221         2.9900     0.5470    -4.5630 ha         1 M99       0.134000
     52 H222         4.3630     1.2520     0.1620 h4         1 M99       0.166000
     53 H223         2.4210     2.6770    -3.3140 h4         1 M99       0.169000
     54 HO1          4.8540    -8.7040     1.7470 ho         1 M99       0.487000
     55 O4           3.0890     3.1080    -0.9310 o          1 M99      -0.522000
     56 H121         3.7530     3.2150     4.3970 hc         1 M99       0.087950
@<TRIPOS>BOND
     1     1     3 1   
     2     2     3 1   
     3     3     4 1   
     4     3    38 1   
     5     4     9 1   
     6     5     6 1   
     7     5     7 1   
     8     5    39 1   
     9     5    56 1   
    10     6     7 1   
    11     6    40 1   
    12     6    41 1   
    13     7     8 1   
    14     7    42 1   
    15     8    10 1   
    16     9    10 ar  
    17     9    14 ar  
    18    10    11 ar  
    19    11    12 ar  
    20    11    43 1   
    21    12    13 ar  
    22    12    15 1   
    23    13    14 ar  
    24    13    44 1   
    25    14    45 1   
    26    15    16 1   
    27    15    31 1   
    28    15    46 1   
    29    16    18 2   
    30    16    19 1   
    31    17    18 1   
    32    17    20 2   
    33    17    47 1   
    34    19    20 1   
    35    20    21 1   
    36    21    22 1   
    37    21    23 1   
    38    21    27 1   
    39    22    54 1   
    40    23    24 1   
    41    23    25 1   
    42    23    26 1   
    43    27    28 1   
    44    27    29 1   
    45    27    30 1   
    46    31    32 1   
    47    31    48 1   
    48    31    49 1   
    49    32    33 ar  
    50    32    35 ar  
    51    33    34 ar  
    52    33    50 1   
    53    34    36 ar  
    54    34    51 1   
    55    35    37 1   
    56    35    52 1   
    57    36    37 2   
    58    36    53 1   
    59    37    55 1   
@<TRIPOS>SUBSTRUCTURE
     1 M99         1 TEMP              0 ****  ****    0 ROOT
