@<TRIPOS>MOLECULE
M99
   56    59     1     0     0
SMALL
abcg2


@<TRIPOS>ATOM
      1 F1          -2.1460    -0.1850     3.5190 f          1 M99      -0.115500
      2 F2          -2.4300    -0.5310     1.4070 f          1 M99      -0.115500
      3 C1          -1.5590    -0.7130     2.4320 c3         1 M99       0.395300
      4 O1          -0.4250    -0.0010     2.2170 os         1 M99      -0.369100
      5 C12          3.2560     2.3040     4.1300 cx         1 M99      -0.133900
      6 C13          3.8680     2.0470     2.7790 cx         1 M99      -0.133900
      7 C8           3.2150     0.9420     3.5420 cx         1 M99       0.083300
      8 O2           1.9570     0.4900     3.1330 os         1 M99      -0.288100
      9 C2           0.6200    -0.6120     1.5710 ca         1 M99       0.094100
     10 C3           1.9010    -0.3300     2.0660 ca         1 M99       0.148100
     11 C4           3.0020    -0.8990     1.4470 ca         1 M99      -0.160000
     12 C5           2.8460    -1.7230     0.3330 ca         1 M99      -0.068300
     13 C6           1.5750    -1.9860    -0.1470 ca         1 M99      -0.119000
     14 C7           0.4600    -1.4290     0.4700 ca         1 M99      -0.128000
     15 C9           4.0570    -2.3030    -0.3670 c3         1 M99      -0.039700
     16 C10          4.7280    -3.3080     0.5230 cc         1 M99       0.419700
     17 C11          5.9870    -4.1160     2.1300 cd         1 M99       0.332900
     18 N1           5.6050    -3.0130     1.4290 nd         1 M99      -0.647000
     19 S1           4.3060    -4.9730     0.4560 ss         1 M99       0.106600
     20 C14          5.3930    -5.2790     1.7520 cc         1 M99      -0.307300
     21 C15          5.5380    -6.6790     2.2780 c3         1 M99       0.153300
     22 O3           4.7370    -7.4870     1.4840 oh         1 M99      -0.628000
     23 C16          5.0260    -6.7230     3.7390 c3         1 M99       0.286000
     24 F5           3.7690    -6.2930     3.7790 f          1 M99      -0.096167
     25 F6           5.7480    -5.9570     4.5530 f          1 M99      -0.096167
     26 F7           5.0410    -7.9650     4.2270 f          1 M99      -0.096167
     27 C17          7.0130    -7.1310     2.1450 c3         1 M99       0.286000
     28 F8           7.8420    -6.3890     2.8770 f          1 M99      -0.096167
     29 F9           7.3940    -7.0390     0.8750 f          1 M99      -0.096167
     30 F10          7.1700    -8.4030     2.5200 f          1 M99      -0.096167
     31 C18          5.0660    -1.2240    -0.8080 c3         1 M99      -0.021100
     32 C19          4.3860    -0.1120    -1.5480 ca         1 M99      -0.049300
     33 C20          3.8850    -0.2730    -2.8350 ca         1 M99      -0.132000
     34 C21          3.2130     0.7880    -3.4180 ca         1 M99      -0.083000
     35 C22          4.2030     1.0990    -0.9110 ca         1 M99      -0.210000
     36 C23          3.0440     1.9710    -2.7340 ca         1 M99      -0.162300
     37 N2           3.5360     2.1260    -1.4840 na         1 M99       0.472300
     38 H11         -1.3940    -1.7840     2.5700 h3         1 M99       0.058700
     39 H122         2.3320     2.8690     4.1570 hc         1 M99       0.087950
     40 H131         3.3490     2.4430     1.9140 hc         1 M99       0.087950
     41 H132         4.9470     2.0300     2.6900 hc         1 M99       0.087950
     42 H88          3.8460     0.1750     3.9840 h1         1 M99       0.082700
     43 H44          3.9950    -0.7030     1.8290 ha         1 M99       0.139000
     44 H66          1.4390    -2.6140    -1.0180 ha         1 M99       0.116000
     45 H77         -0.5220    -1.6240     0.0620 ha         1 M99       0.133000
     46 H99          3.7030    -2.8210    -1.2620 hc         1 M99       0.064700
     47 H111         6.7180    -4.0040     2.9170 h4         1 M99       0.058100
     48 H181         5.8210    -1.6940    -1.4410 hc         1 M99       0.072200
     49 H182         5.5870    -0.8290     0.0640 hc         1 M99       0.072200
     50 H220         4.0150    -1.2050    -3.3690 ha         1 M99       0.126000
     51 H221         2.8070     0.7100    -4.4170 ha         1 M99       0.134000
     52 H222         4.5730     1.2940     0.0840 h4         1 M99       0.166000
     53 H223         2.5230     2.8250    -3.1400 h4         1 M99       0.169000
     54 HO1          4.7560    -8.4140     1.7580 ho         1 M99       0.487000
     55 O4           3.3730     3.2190    -0.8500 o          1 M99      -0.522000
     56 H121         3.9100     2.4660     4.9760 hc         1 M99       0.087950
@<TRIPOS>BOND
     1     1     3 1   
     2     2     3 1   
     3     3     4 1   
     4     3    38 1   
     5     4     9 1   
     6     5     6 1   
     7     5     7 1   
     8     5    39 1   
     9     5    56 1   
    10     6     7 1   
    11     6    40 1   
    12     6    41 1   
    13     7     8 1   
    14     7    42 1   
    15     8    10 1   
    16     9    10 ar  
    17     9    14 ar  
    18    10    11 ar  
    19    11    12 ar  
    20    11    43 1   
    21    12    13 ar  
    22    12    15 1   
    23    13    14 ar  
    24    13    44 1   
    25    14    45 1   
    26    15    16 1   
    27    15    31 1   
    28    15    46 1   
    29    16    18 2   
    30    16    19 1   
    31    17    18 1   
    32    17    20 2   
    33    17    47 1   
    34    19    20 1   
    35    20    21 1   
    36    21    22 1   
    37    21    23 1   
    38    21    27 1   
    39    22    54 1   
    40    23    24 1   
    41    23    25 1   
    42    23    26 1   
    43    27    28 1   
    44    27    29 1   
    45    27    30 1   
    46    31    32 1   
    47    31    48 1   
    48    31    49 1   
    49    32    33 ar  
    50    32    35 ar  
    51    33    34 ar  
    52    33    50 1   
    53    34    36 ar  
    54    34    51 1   
    55    35    37 1   
    56    35    52 1   
    57    36    37 2   
    58    36    53 1   
    59    37    55 1   
@<TRIPOS>SUBSTRUCTURE
     1 M99         1 TEMP              0 ****  ****    0 ROOT
