@<TRIPOS>MOLECULE
M9A
   47    50     1     0     0
SMALL
No Charge or Current Charge


@<TRIPOS>ATOM
      1 C1          -1.9600    -2.6000    -0.3740 ca         1 M9A       0.010000
      2 N1           1.6580    -1.2290     1.2350 n          1 M9A      -0.304000
      3 O1           1.3870     1.6140     0.2380 os         1 M9A      -0.330100
      4 C2          -1.2980    -2.0680    -1.4960 ca         1 M9A      -0.096000
      5 N2           0.9900    -3.4920     1.2020 ns         1 M9A      -0.466500
      6 C3          -1.0600    -0.6850    -1.5890 ca         1 M9A      -0.073000
      7 C4          -1.4890     0.1810    -0.5610 ca         1 M9A      -0.061000
      8 C5          -1.2620     1.5750    -0.6340 ca         1 M9A       0.183100
      9 C6           0.4930     2.9630    -1.5510 ca         1 M9A       0.065100
     10 C7           0.6010     4.0690    -2.4110 ca         1 M9A      -0.078000
     11 C8           1.6860     4.9540    -2.2940 ca         1 M9A      -0.130000
     12 C9           2.6740     4.7310    -1.3200 ca         1 M9A      -0.073000
     13 C10          2.5840     3.6210    -0.4630 ca         1 M9A      -0.184000
     14 C11          1.4950     2.7260    -0.5740 ca         1 M9A       0.121100
     15 C12          2.3060     1.3060     1.2960 c3         1 M9A       0.145600
     16 C13          1.7710     0.0450     2.0150 c3         1 M9A       0.098000
     17 C14          2.1490    -1.3720    -0.0710 cc         1 M9A       0.001600
     18 C15          2.0380    -2.5880    -0.7030 cd         1 M9A      -0.376200
     19 C16          1.4260    -3.7480    -0.0560 c          1 M9A       0.589200
     20 C17          1.0580    -2.3250     1.8960 c          1 M9A       0.624000
     21 C18         -1.6960     2.4180     0.4050 ca         1 M9A      -0.220000
     22 C19         -2.3430     1.8730     1.5190 ca         1 M9A       0.221000
     23 C20         -2.5680     0.4930     1.6080 ca         1 M9A      -0.168000
     24 C21         -2.1460    -0.3570     0.5700 ca         1 M9A       0.004000
     25 C22         -2.3770    -1.7420     0.6600 ca         1 M9A      -0.087000
     26 N           -2.4210    -5.1590    -0.1980 n1         1 M9A      -0.444000
     27 C           -2.2110    -4.0130    -0.2830 cg         1 M9A       0.324000
     28 O           -0.5890     2.1170    -1.7080 os         1 M9A      -0.240200
     29 F           -2.7500     2.6850     2.5190 f          1 M9A      -0.176000
     30 H1          -0.9650    -2.7230    -2.2990 ha         1 M9A       0.134000
     31 H2           0.5670    -4.2660     1.6870 hn         1 M9A       0.342500
     32 H3          -0.5440    -0.2950    -2.4630 ha         1 M9A       0.133000
     33 H4          -0.1630     4.2430    -3.1660 ha         1 M9A       0.135000
     34 H5           1.7620     5.8120    -2.9590 ha         1 M9A       0.124000
     35 H6           3.5140     5.4180    -1.2330 ha         1 M9A       0.119000
     36 H7           3.3670     3.4670     0.2730 ha         1 M9A       0.119000
     37 H8           3.3170     1.1220     0.9090 h1         1 M9A       0.043200
     38 H9           2.3540     2.1320     2.0160 h1         1 M9A       0.043200
     39 H10          0.7770     0.2910     2.4120 h1         1 M9A       0.081700
     40 H11          2.4200    -0.1470     2.8800 h1         1 M9A       0.081700
     41 H12          2.5970    -0.4840    -0.5030 h4         1 M9A       0.199000
     42 H13          2.3990    -2.7550    -1.7110 ha         1 M9A       0.223000
     43 H14         -1.5220     3.4880     0.3510 ha         1 M9A       0.142000
     44 H15         -3.0710     0.0900     2.4820 ha         1 M9A       0.138000
     45 H16         -2.8840    -2.1510     1.5310 ha         1 M9A       0.129000
     46 O2           1.3110    -4.8400    -0.5810 o          1 M9A      -0.524000
     47 O3           0.6190    -2.2580     3.0330 o          1 M9A      -0.547000
@<TRIPOS>BOND
     1     1     4 ar  
     2     1    25 ar  
     3     1    27 1   
     4     2    16 1   
     5     2    17 1   
     6     2    20 1   
     7     3    14 1   
     8     3    15 1   
     9     4     6 ar  
    10     4    30 1   
    11     5    19 1   
    12     5    20 1   
    13     5    31 1   
    14     6     7 ar  
    15     6    32 1   
    16     7     8 ar  
    17     7    24 ar  
    18     8    21 ar  
    19     8    28 1   
    20     9    10 ar  
    21     9    14 ar  
    22     9    28 1   
    23    10    11 ar  
    24    10    33 1   
    25    11    12 ar  
    26    11    34 1   
    27    12    13 ar  
    28    12    35 1   
    29    13    14 ar  
    30    13    36 1   
    31    15    16 1   
    32    15    37 1   
    33    15    38 1   
    34    16    39 1   
    35    16    40 1   
    36    17    18 2   
    37    17    41 1   
    38    18    19 1   
    39    18    42 1   
    40    19    46 2   
    41    20    47 2   
    42    21    22 ar  
    43    21    43 1   
    44    22    23 ar  
    45    22    29 1   
    46    23    24 ar  
    47    23    44 1   
    48    24    25 ar  
    49    25    45 1   
    50    26    27 3   
@<TRIPOS>SUBSTRUCTURE
     1 M9A         1 TEMP              0 ****  ****    0 ROOT
