@<TRIPOS>MOLECULE
M9A
   47    50     1     0     0
SMALL
bcc


@<TRIPOS>ATOM
      1 C1          -2.4120    -2.7740    -0.7590 ca         1 M9A       0.010000
      2 N1           2.1450    -0.9360     1.3700 n          1 M9A      -0.371000
      3 O1           1.7350     1.6480     0.3940 os         1 M9A      -0.306900
      4 C2          -1.5030    -2.2950    -1.7290 ca         1 M9A      -0.114000
      5 N2           0.4160    -2.4580     1.1440 ns         1 M9A      -0.600500
      6 C3          -1.0510    -1.0110    -1.6490 ca         1 M9A      -0.091000
      7 C4          -1.4850    -0.1540    -0.6120 ca         1 M9A      -0.061000
      8 C5          -1.0250     1.1860    -0.4960 ca         1 M9A       0.183100
      9 C6           0.5720     2.7250    -1.3130 ca         1 M9A       0.065100
     10 C7           0.3340     3.8060    -2.1380 ca         1 M9A      -0.096000
     11 C8           1.1630     4.9200    -2.0750 ca         1 M9A      -0.148000
     12 C9           2.2200     4.9320    -1.1800 ca         1 M9A      -0.091000
     13 C10          2.4550     3.8480    -0.3420 ca         1 M9A      -0.202000
     14 C11          1.6250     2.7340    -0.3910 ca         1 M9A       0.121100
     15 C12          2.9640     1.3880     1.0410 c3         1 M9A       0.122400
     16 C13          2.7610     0.2280     1.9920 c3         1 M9A       0.098000
     17 C14          2.8400    -1.6510     0.4400 cc         1 M9A       0.051600
     18 C15          2.3650    -2.7570    -0.1550 cd         1 M9A      -0.326200
     19 C16          1.0600    -3.2520     0.2100 c          1 M9A       0.731700
     20 C17          0.8730    -1.3150     1.7500 c          1 M9A       0.833500
     21 C18         -1.4550     1.9950     0.5190 ca         1 M9A      -0.238000
     22 C19         -2.3580     1.4730     1.4550 ca         1 M9A       0.185900
     23 C20         -2.8440     0.2060     1.4050 ca         1 M9A      -0.186000
     24 C21         -2.4050    -0.6320     0.3550 ca         1 M9A       0.004000
     25 C22         -2.8590    -1.9630     0.2560 ca         1 M9A      -0.105000
     26 N           -3.2110    -5.2230    -0.8840 n1         1 M9A      -0.354800
     27 C           -2.8540    -4.1300    -0.8250 cg         1 M9A       0.234800
     28 O           -0.1780     1.5880    -1.4680 os         1 M9A      -0.240200
     29 F           -2.7540     2.2950     2.4370 f          1 M9A      -0.140900
     30 H1          -1.1600    -2.9500    -2.5180 ha         1 M9A       0.152000
     31 H2          -0.5060    -2.7560     1.4360 hn         1 M9A       0.342500
     32 H3          -0.3480    -0.6550    -2.3880 ha         1 M9A       0.151000
     33 H4          -0.4880     3.7640    -2.8410 ha         1 M9A       0.153000
     34 H5           0.9810     5.7650    -2.7250 ha         1 M9A       0.142000
     35 H6           2.8770     5.7900    -1.1250 ha         1 M9A       0.137000
     36 H7           3.2890     3.8890     0.3450 ha         1 M9A       0.137000
     37 H8           3.7400     1.1810     0.2960 h1         1 M9A       0.043200
     38 H9           3.3050     2.2360     1.6420 h1         1 M9A       0.043200
     39 H10          2.1340     0.5340     2.8240 h1         1 M9A       0.081700
     40 H11          3.7310    -0.0560     2.4020 h1         1 M9A       0.081700
     41 H12          3.8270    -1.2750     0.2100 h4         1 M9A       0.149000
     42 H13          2.9590    -3.2910    -0.8810 ha         1 M9A       0.173000
     43 H14         -1.1230     3.0210     0.6160 ha         1 M9A       0.160000
     44 H15         -3.5390    -0.1610     2.1480 ha         1 M9A       0.156000
     45 H16         -3.5540    -2.3430     0.9940 ha         1 M9A       0.147000
     46 O2           0.5300    -4.2610    -0.2170 o          1 M9A      -0.599500
     47 O3           0.2110    -0.7150     2.5680 o          1 M9A      -0.622500
@<TRIPOS>BOND
     1     1     4 ar  
     2     1    25 ar  
     3     1    27 1   
     4     2    16 1   
     5     2    17 1   
     6     2    20 1   
     7     3    14 1   
     8     3    15 1   
     9     4     6 ar  
    10     4    30 1   
    11     5    19 1   
    12     5    20 1   
    13     5    31 1   
    14     6     7 ar  
    15     6    32 1   
    16     7     8 ar  
    17     7    24 ar  
    18     8    21 ar  
    19     8    28 1   
    20     9    10 ar  
    21     9    14 ar  
    22     9    28 1   
    23    10    11 ar  
    24    10    33 1   
    25    11    12 ar  
    26    11    34 1   
    27    12    13 ar  
    28    12    35 1   
    29    13    14 ar  
    30    13    36 1   
    31    15    16 1   
    32    15    37 1   
    33    15    38 1   
    34    16    39 1   
    35    16    40 1   
    36    17    18 2   
    37    17    41 1   
    38    18    19 1   
    39    18    42 1   
    40    19    46 2   
    41    20    47 2   
    42    21    22 ar  
    43    21    43 1   
    44    22    23 ar  
    45    22    29 1   
    46    23    24 ar  
    47    23    44 1   
    48    24    25 ar  
    49    25    45 1   
    50    26    27 3   
@<TRIPOS>SUBSTRUCTURE
     1 M9A         1 TEMP              0 ****  ****    0 ROOT
