@<TRIPOS>MOLECULE
M9B
   73    75     1     0     0
SMALL
bcc


@<TRIPOS>ATOM
      1 C4         -13.2030     5.5710   -14.3840 c6         1 M9B      -0.075200
      2 C14         -9.4950     9.4140   -10.9570 c5         1 M9B      -0.036500
      3 C5         -12.6270     6.8690   -13.8920 ce         1 M9B      -0.070200
      4 C6         -13.2460     8.0550   -14.5190 ce         1 M9B      -0.117200
      5 C11         -7.7930     7.0530   -11.1530 c6         1 M9B      -0.070400
      6 C7         -11.6630     6.9080   -12.9560 cf         1 M9B      -0.112000
      7 C8         -11.0740     8.1000   -12.3780 cf         1 M9B      -0.140000
      8 C9         -10.0540     8.1400   -11.5070 c2         1 M9B      -0.078400
      9 C10         -9.3140     6.9430   -10.9660 c6         1 M9B      -0.042200
     10 C12         -7.2380     8.3960   -10.6750 c6         1 M9B      -0.063400
     11 C13         -7.9950     9.5660   -11.2970 c5         1 M9B      -0.040000
     12 C3         -14.7260     5.5490   -14.2590 c6         1 M9B       0.153100
     13 O          -15.1400     5.5640   -12.9070 oh         1 M9B      -0.596800
     14 C1         -14.7560     8.0760   -14.4050 c6         1 M9B       0.188300
     15 C15        -10.0940    10.7750   -11.3040 c5         1 M9B      -0.070400
     16 C16         -8.9510    11.7800   -11.0080 c5         1 M9B      -0.073400
     17 C17         -7.7210    10.9270   -10.6290 c5         1 M9B      -0.053700
     18 C18         -7.7850     9.5930   -12.8110 c3         1 M9B      -0.077100
     19 C19        -12.5470     8.9780   -15.1760 c2         1 M9B      -0.203000
     20 C2         -15.3340     6.7670   -14.9390 c6         1 M9B      -0.064400
     21 C20         -6.3360    11.5660   -10.8190 c3         1 M9B      -0.045700
     22 C21         -6.0000    12.4440    -9.6120 c3         1 M9B      -0.089100
     23 C22         -6.1400    12.3690   -12.1140 c3         1 M9B      -0.073400
     24 C23         -4.6790    12.4570   -12.5420 c3         1 M9B      -0.076400
     25 C24         -4.4760    13.3240   -13.7790 c3         1 M9B      -0.072400
     26 C25         -3.0210    13.4700   -14.2320 c3         1 M9B      -0.059700
     27 C26         -2.4270    12.1390   -14.6840 c3         1 M9B      -0.087100
     28 C27         -2.9170    14.5030   -15.3500 c3         1 M9B      -0.087100
     29 O1         -15.3640     9.1330   -15.1030 oh         1 M9B      -0.594800
     30 H1         -12.7630     4.7220   -13.8520 hc         1 M9B       0.052200
     31 H2         -12.9530     5.4370   -15.4430 hc         1 M9B       0.052200
     32 H3          -9.5390     9.3150    -9.8600 hc         1 M9B       0.052700
     33 H5          -7.3100     6.2380   -10.6100 hc         1 M9B       0.040200
     34 H6         -11.3100     5.9500   -12.5890 ha         1 M9B       0.116000
     35 H7         -11.5080     9.0440   -12.6900 ha         1 M9B       0.127000
     36 H8          -9.5220     6.8760    -9.8900 hc         1 M9B       0.044700
     37 H9          -9.6640     6.0090   -11.4040 hc         1 M9B       0.044700
     38 H10         -6.1680     8.4570   -10.8990 hc         1 M9B       0.040200
     39 H11         -7.3310     8.4580    -9.5840 hc         1 M9B       0.040200
     40 H12        -15.0990     4.6480   -14.7640 h1         1 M9B       0.034700
     41 H13        -14.6750     4.8620   -12.4410 ho         1 M9B       0.402000
     42 H14        -14.9930     8.1430   -13.3330 h1         1 M9B       0.054700
     43 H15        -10.9940    10.9820   -10.7230 hc         1 M9B       0.043700
     44 H16        -10.3830    10.8280   -12.3550 hc         1 M9B       0.043700
     45 H17         -8.7550    12.3960   -11.8870 hc         1 M9B       0.042200
     46 H18         -9.2140    12.4700   -10.2050 hc         1 M9B       0.042200
     47 H19         -7.8030    10.7190    -9.5540 hc         1 M9B       0.042700
     48 H20         -8.2870    10.4350   -13.2870 hc         1 M9B       0.034700
     49 H21         -6.7240     9.6590   -13.0600 hc         1 M9B       0.034700
     50 H22         -8.1710     8.6900   -13.2870 hc         1 M9B       0.034700
     51 H23        -11.4690     8.9140   -15.2530 ha         1 M9B       0.118500
     52 H24        -13.0170     9.8200   -15.6680 ha         1 M9B       0.118500
     53 H25        -16.4190     6.7610   -14.8090 hc         1 M9B       0.062200
     54 H26        -15.1390     6.7000   -16.0140 hc         1 M9B       0.062200
     55 H27         -5.6110    10.7410   -10.8310 hc         1 M9B       0.045700
     56 H28         -5.9950    11.8650    -8.6870 hc         1 M9B       0.032033
     57 H29         -5.0190    12.9120    -9.7090 hc         1 M9B       0.032033
     58 H30         -6.7350    13.2450    -9.4990 hc         1 M9B       0.032033
     59 H31         -6.5420    13.3790   -11.9780 hc         1 M9B       0.040700
     60 H32         -6.7090    11.9320   -12.9360 hc         1 M9B       0.040700
     61 H33         -4.3130    11.4420   -12.7280 hc         1 M9B       0.036700
     62 H34         -4.0690    12.8540   -11.7240 hc         1 M9B       0.036700
     63 H35         -4.8830    14.3210   -13.5770 hc         1 M9B       0.036700
     64 H36         -5.0660    12.9200   -14.6110 hc         1 M9B       0.036700
     65 H37         -2.4360    13.8350   -13.3780 hc         1 M9B       0.043700
     66 H38         -2.4240    11.3940   -13.8890 hc         1 M9B       0.031533
     67 H39         -2.9990    11.7300   -15.5210 hc         1 M9B       0.031533
     68 H40         -1.3950    12.2610   -15.0190 hc         1 M9B       0.031533
     69 H41         -3.3190    15.4690   -15.0400 hc         1 M9B       0.031533
     70 H42         -1.8820    14.6580   -15.6580 hc         1 M9B       0.031533
     71 H43         -3.4770    14.1790   -16.2320 hc         1 M9B       0.031533
     72 H44        -15.1460     9.9570   -14.6560 ho         1 M9B       0.405000
     73 H4          -7.5470     6.9010   -12.2070 hc         1 M9B       0.040200
@<TRIPOS>BOND
     1     1     3 1   
     2     1    12 1   
     3     1    30 1   
     4     1    31 1   
     5     2     8 1   
     6     2    11 1   
     7     2    15 1   
     8     2    32 1   
     9     3     4 1   
    10     3     6 2   
    11     4    14 1   
    12     4    19 2   
    13     5     9 1   
    14     5    10 1   
    15     5    33 1   
    16     5    73 1   
    17     6     7 1   
    18     6    34 1   
    19     7     8 2   
    20     7    35 1   
    21     8     9 1   
    22     9    36 1   
    23     9    37 1   
    24    10    11 1   
    25    10    38 1   
    26    10    39 1   
    27    11    17 1   
    28    11    18 1   
    29    12    13 1   
    30    12    20 1   
    31    12    40 1   
    32    13    41 1   
    33    14    20 1   
    34    14    29 1   
    35    14    42 1   
    36    15    16 1   
    37    15    43 1   
    38    15    44 1   
    39    16    17 1   
    40    16    45 1   
    41    16    46 1   
    42    17    21 1   
    43    17    47 1   
    44    18    48 1   
    45    18    49 1   
    46    18    50 1   
    47    19    51 1   
    48    19    52 1   
    49    20    53 1   
    50    20    54 1   
    51    21    22 1   
    52    21    23 1   
    53    21    55 1   
    54    22    56 1   
    55    22    57 1   
    56    22    58 1   
    57    23    24 1   
    58    23    59 1   
    59    23    60 1   
    60    24    25 1   
    61    24    61 1   
    62    24    62 1   
    63    25    26 1   
    64    25    63 1   
    65    25    64 1   
    66    26    27 1   
    67    26    28 1   
    68    26    65 1   
    69    27    66 1   
    70    27    67 1   
    71    27    68 1   
    72    28    69 1   
    73    28    70 1   
    74    28    71 1   
    75    29    72 1   
@<TRIPOS>SUBSTRUCTURE
     1 M9B         1 TEMP              0 ****  ****    0 ROOT
