@<TRIPOS>MOLECULE
M9B
   73    75     1     0     0
SMALL
No Charge or Current Charge


@<TRIPOS>ATOM
      1 C4         -13.5980     5.5090   -14.2180 c6         1 M9B      -0.075200
      2 C14         -9.4450     9.2930   -11.0340 c5         1 M9B      -0.036500
      3 C5         -12.9550     6.8090   -13.7110 ce         1 M9B      -0.070200
      4 C6         -13.5530     8.0200   -14.3010 ce         1 M9B      -0.117200
      5 C11         -7.6920     6.9190   -11.5730 c6         1 M9B      -0.070400
      6 C7         -11.8910     6.7860   -12.8550 cf         1 M9B      -0.162000
      7 C8         -11.2140     7.9640   -12.3080 cf         1 M9B      -0.190000
      8 C9         -10.0410     7.9980   -11.6150 c2         1 M9B      -0.078400
      9 C10         -9.2080     6.7500   -11.2680 c6         1 M9B      -0.042200
     10 C12         -7.1210     8.2730   -11.0620 c6         1 M9B      -0.063400
     11 C13         -7.9790     9.4730   -11.5580 c5         1 M9B      -0.040000
     12 C3         -15.1430     5.5260   -14.0710 c6         1 M9B       0.176300
     13 O          -15.5160     5.4220   -12.6910 oh         1 M9B      -0.659000
     14 C1         -15.0840     8.0880   -14.1180 c6         1 M9B       0.211500
     15 C15        -10.0960    10.6450   -11.4590 c5         1 M9B      -0.070400
     16 C16         -8.9630    11.6920   -11.1630 c5         1 M9B      -0.073400
     17 C17         -7.6920    10.8340   -10.8090 c5         1 M9B      -0.053700
     18 C18         -7.8730     9.5380   -13.1240 c3         1 M9B      -0.077100
     19 C19        -12.8140     8.9390   -14.9690 c2         1 M9B      -0.303000
     20 C2         -15.7440     6.8120   -14.6940 c6         1 M9B      -0.064400
     21 C20         -6.2950    11.5480   -10.9260 c3         1 M9B      -0.045700
     22 C21         -6.1440    12.6210    -9.8120 c3         1 M9B      -0.089100
     23 C22         -5.9460    12.1550   -12.3220 c3         1 M9B      -0.073400
     24 C23         -4.5140    12.7330   -12.4510 c3         1 M9B      -0.076400
     25 C24         -4.1720    13.1650   -13.8980 c3         1 M9B      -0.072400
     26 C25         -2.7910    13.8560   -14.0630 c3         1 M9B      -0.059700
     27 C26         -1.6060    12.9360   -13.6790 c3         1 M9B      -0.087100
     28 C27         -2.6150    14.4020   -15.4980 c3         1 M9B      -0.087100
     29 O1         -15.6430     9.2500   -14.7440 oh         1 M9B      -0.657000
     30 H1         -13.1810     4.6340   -13.7010 hc         1 M9B       0.052200
     31 H2         -13.3410     5.3810   -15.2780 hc         1 M9B       0.052200
     32 H3          -9.4810     9.1970    -9.9400 hc         1 M9B       0.052700
     33 H5          -7.1320     6.0900   -11.1190 hc         1 M9B       0.040200
     34 H6         -11.5410     5.8070   -12.5330 ha         1 M9B       0.166000
     35 H7         -11.7420     8.9010   -12.4770 ha         1 M9B       0.177000
     36 H8          -9.3330     6.5380   -10.1980 hc         1 M9B       0.044700
     37 H9          -9.5590     5.8550   -11.7930 hc         1 M9B       0.044700
     38 H10         -6.0800     8.3890   -11.3920 hc         1 M9B       0.040200
     39 H11         -7.0970     8.2600    -9.9640 hc         1 M9B       0.040200
     40 H12        -15.5480     4.6600   -14.6180 h1         1 M9B       0.034700
     41 H13        -15.0880     4.6090   -12.3450 ho         1 M9B       0.441000
     42 H14        -15.2910     8.1220   -13.0370 h1         1 M9B       0.054700
     43 H15        -11.0120    10.8550   -10.8950 hc         1 M9B       0.043700
     44 H16        -10.3630    10.6680   -12.5220 hc         1 M9B       0.043700
     45 H17         -8.8060    12.3360   -12.0350 hc         1 M9B       0.042200
     46 H18         -9.2330    12.3550   -10.3330 hc         1 M9B       0.042200
     47 H19         -7.7470    10.6100    -9.7360 hc         1 M9B       0.042700
     48 H20         -8.2060    10.4980   -13.5330 hc         1 M9B       0.034700
     49 H21         -6.8430     9.3790   -13.4630 hc         1 M9B       0.034700
     50 H22         -8.4780     8.7670   -13.6130 hc         1 M9B       0.034700
     51 H23        -11.7360     8.8190   -15.0820 ha         1 M9B       0.168500
     52 H24        -13.2450     9.8250   -15.4340 ha         1 M9B       0.168500
     53 H25        -16.8280     6.8380   -14.5240 hc         1 M9B       0.062200
     54 H26        -15.6000     6.7870   -15.7820 hc         1 M9B       0.062200
     55 H27         -5.5340    10.7850   -10.7180 hc         1 M9B       0.045700
     56 H28         -6.4130    12.2110    -8.8310 hc         1 M9B       0.032033
     57 H29         -5.1100    12.9740    -9.7330 hc         1 M9B       0.032033
     58 H30         -6.7910    13.4840   -10.0090 hc         1 M9B       0.032033
     59 H31         -6.6650    12.9440   -12.5730 hc         1 M9B       0.040700
     60 H32         -6.0430    11.3880   -13.0900 hc         1 M9B       0.040700
     61 H33         -3.7980    11.9750   -12.1140 hc         1 M9B       0.036700
     62 H34         -4.4040    13.6040   -11.7950 hc         1 M9B       0.036700
     63 H35         -4.9520    13.8560   -14.2430 hc         1 M9B       0.036700
     64 H36         -4.2190    12.2880   -14.5560 hc         1 M9B       0.036700
     65 H37         -2.7680    14.7200   -13.3860 hc         1 M9B       0.043700
     66 H38         -1.6420    12.6640   -12.6180 hc         1 M9B       0.031533
     67 H39         -1.6170    12.0150   -14.2740 hc         1 M9B       0.031533
     68 H40         -0.6500    13.4450   -13.8540 hc         1 M9B       0.031533
     69 H41         -3.4220    15.1000   -15.7500 hc         1 M9B       0.031533
     70 H42         -1.6630    14.9380   -15.5960 hc         1 M9B       0.031533
     71 H43         -2.6260    13.5850   -16.2310 hc         1 M9B       0.031533
     72 H44        -15.1910    10.0180   -14.3350 ho         1 M9B       0.444000
     73 H4          -7.5260     6.8290   -12.6550 hc         1 M9B       0.040200
@<TRIPOS>BOND
     1     1     3 1   
     2     1    12 1   
     3     1    30 1   
     4     1    31 1   
     5     2     8 1   
     6     2    11 1   
     7     2    15 1   
     8     2    32 1   
     9     3     4 1   
    10     3     6 2   
    11     4    14 1   
    12     4    19 2   
    13     5     9 1   
    14     5    10 1   
    15     5    33 1   
    16     5    73 1   
    17     6     7 1   
    18     6    34 1   
    19     7     8 2   
    20     7    35 1   
    21     8     9 1   
    22     9    36 1   
    23     9    37 1   
    24    10    11 1   
    25    10    38 1   
    26    10    39 1   
    27    11    17 1   
    28    11    18 1   
    29    12    13 1   
    30    12    20 1   
    31    12    40 1   
    32    13    41 1   
    33    14    20 1   
    34    14    29 1   
    35    14    42 1   
    36    15    16 1   
    37    15    43 1   
    38    15    44 1   
    39    16    17 1   
    40    16    45 1   
    41    16    46 1   
    42    17    21 1   
    43    17    47 1   
    44    18    48 1   
    45    18    49 1   
    46    18    50 1   
    47    19    51 1   
    48    19    52 1   
    49    20    53 1   
    50    20    54 1   
    51    21    22 1   
    52    21    23 1   
    53    21    55 1   
    54    22    56 1   
    55    22    57 1   
    56    22    58 1   
    57    23    24 1   
    58    23    59 1   
    59    23    60 1   
    60    24    25 1   
    61    24    61 1   
    62    24    62 1   
    63    25    26 1   
    64    25    63 1   
    65    25    64 1   
    66    26    27 1   
    67    26    28 1   
    68    26    65 1   
    69    27    66 1   
    70    27    67 1   
    71    27    68 1   
    72    28    69 1   
    73    28    70 1   
    74    28    71 1   
    75    29    72 1   
@<TRIPOS>SUBSTRUCTURE
     1 M9B         1 TEMP              0 ****  ****    0 ROOT
