@<TRIPOS>MOLECULE
M9D
   27    28     1     0     0
SMALL
No Charge or Current Charge


@<TRIPOS>ATOM
      1 C10         -4.2490     0.2170     0.1300 ca         1 M9D      -0.086000
      2 C13          0.5590    -1.9010    -0.3180 cc         1 M9D       0.252900
      3 C01          4.2090     0.2190     1.0530 c3         1 M9D      -0.093100
      4 C02          3.6040     0.0880    -0.3590 c3         1 M9D       0.137200
      5 C03          2.1930    -0.5100    -0.3190 cd         1 M9D       0.401800
      6 C05         -0.0310    -0.6650    -0.1920 cd         1 M9D      -0.163000
      7 C06         -1.4730    -0.3390    -0.0810 ca         1 M9D      -0.032000
      8 C07         -1.9430     0.9950     0.0460 ca         1 M9D       0.165000
      9 C09         -3.3180     1.2660     0.1500 ca         1 M9D      -0.145000
     10 C11         -3.8010    -1.1070     0.0050 ca         1 M9D      -0.121000
     11 C12         -2.4260    -1.3830    -0.0990 ca         1 M9D      -0.077000
     12 F08         -1.0850     2.0410     0.0710 f          1 M9D      -0.186000
     13 N04          1.0330     0.2240    -0.1970 na         1 M9D      -0.260500
     14 N14          1.9220    -1.8060    -0.3970 nc         1 M9D      -0.682000
     15 N15          3.6680     1.4120    -1.0510 n8         1 M9D      -1.023200
     16 H1          -5.3140     0.4280     0.2100 ha         1 M9D       0.119000
     17 H2           0.0870    -2.8750    -0.3590 h4         1 M9D       0.036100
     18 H9           3.6140     0.9020     1.6710 hc         1 M9D       0.046367
     19 H10          4.2310    -0.7590     1.5500 hc         1 M9D       0.046367
     20 H11          4.2390    -0.6080    -0.9270 h1         1 M9D       0.052700
     21 H12         -3.6580     2.2940     0.2470 ha         1 M9D       0.132000
     22 H13         -4.5200    -1.9230    -0.0110 ha         1 M9D       0.120000
     23 H14         -2.1110    -2.4180    -0.1940 ha         1 M9D       0.123000
     24 H29          0.9960     1.2340    -0.1370 hn         1 M9D       0.377000
     25 H31          4.6450     1.7290    -1.0810 hn         1 M9D       0.405500
     26 H3           3.4320     1.2860    -2.0440 hn         1 M9D       0.405500
     27 H8           5.2370     0.5970     1.0060 hc         1 M9D       0.046367
@<TRIPOS>BOND
     1     1     9 ar  
     2     1    10 ar  
     3     1    16 1   
     4     2     6 2   
     5     2    14 1   
     6     2    17 1   
     7     3     4 1   
     8     3    18 1   
     9     3    19 1   
    10     3    27 1   
    11     4     5 1   
    12     4    15 1   
    13     4    20 1   
    14     5    13 1   
    15     5    14 2   
    16     6     7 1   
    17     6    13 1   
    18     7     8 ar  
    19     7    11 ar  
    20     8     9 ar  
    21     8    12 1   
    22     9    21 1   
    23    10    11 ar  
    24    10    22 1   
    25    11    23 1   
    26    13    24 1   
    27    15    25 1   
    28    15    26 1   
@<TRIPOS>SUBSTRUCTURE
     1 M9D         1 TEMP              0 ****  ****    0 ROOT
