@<TRIPOS>MOLECULE
M9D
   27    28     1     0     0
SMALL
bcc


@<TRIPOS>ATOM
      1 C10         -4.1340     0.2790     0.0570 ca         1 M9D      -0.104000
      2 C13          0.5970    -1.9680     0.0340 cc         1 M9D       0.318200
      3 C01          4.1100     0.3710     0.9730 c3         1 M9D      -0.093100
      4 C02          3.5490     0.0380    -0.4080 c3         1 M9D       0.137200
      5 C03          2.2010    -0.6020    -0.2750 cd         1 M9D       0.401800
      6 C05          0.0110    -0.7310    -0.0880 cd         1 M9D      -0.177600
      7 C06         -1.3950    -0.3570    -0.0560 ca         1 M9D      -0.032000
      8 C07         -1.8490     0.9010     0.3270 ca         1 M9D       0.129900
      9 C09         -3.1860     1.2370     0.3850 ca         1 M9D      -0.163000
     10 C11         -3.7250    -0.9930    -0.3260 ca         1 M9D      -0.139000
     11 C12         -2.3770    -1.2990    -0.3870 ca         1 M9D      -0.095000
     12 F08         -0.9460     1.8390     0.6690 f          1 M9D      -0.150900
     13 N04          1.0670     0.1230    -0.2780 na         1 M9D      -0.260900
     14 N14          1.9500    -1.8750    -0.0840 nc         1 M9D      -0.682000
     15 N15          3.4080     1.2600    -1.1860 n8         1 M9D      -0.912800
     16 H1          -5.1860     0.5290     0.1000 ha         1 M9D       0.137000
     17 H2           0.1050    -2.9130     0.2110 h4         1 M9D       0.036100
     18 H9           3.4740     1.0960     1.4820 hc         1 M9D       0.046367
     19 H10          4.1760    -0.5240     1.5890 hc         1 M9D       0.046367
     20 H11          4.2120    -0.7040    -0.8730 h1         1 M9D       0.052700
     21 H12         -3.4780     2.2330     0.6910 ha         1 M9D       0.150000
     22 H13         -4.4580    -1.7440    -0.5890 ha         1 M9D       0.138000
     23 H14         -2.0670    -2.2840    -0.7110 ha         1 M9D       0.141000
     24 H29          1.0400     1.1160    -0.4520 hn         1 M9D       0.326700
     25 H31          4.2740     1.7820    -1.1560 hn         1 M9D       0.350300
     26 H3           3.2520     1.0350    -2.1610 hn         1 M9D       0.350300
     27 H8           5.1130     0.7930     0.8870 hc         1 M9D       0.046367
@<TRIPOS>BOND
     1     1     9 ar  
     2     1    10 ar  
     3     1    16 1   
     4     2     6 2   
     5     2    14 1   
     6     2    17 1   
     7     3     4 1   
     8     3    18 1   
     9     3    19 1   
    10     3    27 1   
    11     4     5 1   
    12     4    15 1   
    13     4    20 1   
    14     5    13 1   
    15     5    14 2   
    16     6     7 1   
    17     6    13 1   
    18     7     8 ar  
    19     7    11 ar  
    20     8     9 ar  
    21     8    12 1   
    22     9    21 1   
    23    10    11 ar  
    24    10    22 1   
    25    11    23 1   
    26    13    24 1   
    27    15    25 1   
    28    15    26 1   
@<TRIPOS>SUBSTRUCTURE
     1 M9D         1 TEMP              0 ****  ****    0 ROOT
