@<TRIPOS>MOLECULE
M9E
   42    42     1     0     0
SMALL
bcc


@<TRIPOS>ATOM
      1 O1           5.0920    -1.7630    -0.1280 o          1 M9E      -0.604600
      2 C1           4.7290    -0.5950    -0.1080 c          1 M9E       0.667600
      3 N1           3.5960    -0.1880     0.4820 ns         1 M9E      -0.573900
      4 C2           2.6760    -1.0890     1.1470 c3         1 M9E       0.148300
      5 C3           1.2840    -0.5180     1.1560 ca         1 M9E      -0.106300
      6 C4           0.6180    -0.2570    -0.0420 ca         1 M9E      -0.117250
      7 C5          -0.6640     0.2640    -0.0370 ca         1 M9E      -0.117250
      8 C6          -1.3170     0.5380     1.1650 ca         1 M9E      -0.106300
      9 C7          -2.7100     1.1070     1.1660 c3         1 M9E       0.148300
     10 N2          -3.6330     0.2080     0.5040 ns         1 M9E      -0.573900
     11 C8          -4.7570     0.6160    -0.1030 c          1 M9E       0.667600
     12 C9          -5.5500    -0.4780    -0.7920 c3         1 M9E       0.079800
     13 N3          -6.9670    -0.2270    -0.6810 n7         1 M9E      -0.794200
     14 C10         -7.7520    -1.1620    -1.4590 c3         1 M9E       0.143600
     15 O2          -5.1090     1.7860    -0.1470 o          1 M9E      -0.604600
     16 C11         -0.6550     0.2760     2.3550 ca         1 M9E      -0.117250
     17 C12          0.6360    -0.2420     2.3510 ca         1 M9E      -0.117250
     18 C13          5.5170     0.4930    -0.8110 c3         1 M9E       0.079800
     19 N4           6.9360     0.2560    -0.6860 n7         1 M9E      -0.794200
     20 C14          7.7180     1.1840    -1.4750 c3         1 M9E       0.143600
     21 H1           3.4100     0.8000     0.5460 hn         1 M9E       0.317500
     22 H2           2.6850    -2.0430     0.6170 h1         1 M9E       0.062700
     23 H3           3.0020    -1.2920     2.1710 h1         1 M9E       0.062700
     24 H4           1.1060    -0.4630    -0.9870 ha         1 M9E       0.137000
     25 H5          -1.1630     0.4590    -0.9800 ha         1 M9E       0.137000
     26 H6          -3.0300     1.3050     2.1930 h1         1 M9E       0.062700
     27 H7          -2.7240     2.0630     0.6400 h1         1 M9E       0.062700
     28 H8          -3.4580    -0.7810     0.5850 hn         1 M9E       0.317500
     29 H9          -5.1940    -0.5220    -1.8370 h1         1 M9E       0.043700
     30 H10         -5.3200    -1.4550    -0.3570 h1         1 M9E       0.043700
     31 H11         -7.1570     0.7150    -0.9980 hn         1 M9E       0.377800
     32 H13         -8.8070    -0.8950    -1.3980 h1         1 M9E       0.031033
     33 H14         -7.4740    -1.2040    -2.5220 h1         1 M9E       0.031033
     34 H15         -7.6450    -2.1700    -1.0540 h1         1 M9E       0.031033
     35 H16         -1.1450     0.4780     3.3000 ha         1 M9E       0.137000
     36 H17          1.1360    -0.4360     3.2920 ha         1 M9E       0.137000
     37 H18          5.1690     0.5130    -1.8590 h1         1 M9E       0.043700
     38 H19          5.2750     1.4750    -0.3970 h1         1 M9E       0.043700
     39 H20          7.1350    -0.6900    -0.9870 hn         1 M9E       0.377800
     40 H22          8.7750     0.9290    -1.3990 h1         1 M9E       0.031033
     41 H23          7.4500     1.2030    -2.5410 h1         1 M9E       0.031033
     42 H24          7.5970     2.1980    -1.0900 h1         1 M9E       0.031033
@<TRIPOS>BOND
     1     1     2 2   
     2     2     3 1   
     3     2    18 1   
     4     3     4 1   
     5     3    21 1   
     6     4     5 1   
     7     4    22 1   
     8     4    23 1   
     9     5     6 ar  
    10     5    17 ar  
    11     6     7 ar  
    12     6    24 1   
    13     7     8 ar  
    14     7    25 1   
    15     8     9 1   
    16     8    16 ar  
    17     9    10 1   
    18     9    26 1   
    19     9    27 1   
    20    10    11 1   
    21    10    28 1   
    22    11    12 1   
    23    11    15 2   
    24    12    13 1   
    25    12    29 1   
    26    12    30 1   
    27    13    14 1   
    28    13    31 1   
    29    14    32 1   
    30    14    33 1   
    31    14    34 1   
    32    16    17 ar  
    33    16    35 1   
    34    17    36 1   
    35    18    19 1   
    36    18    37 1   
    37    18    38 1   
    38    19    20 1   
    39    19    39 1   
    40    20    40 1   
    41    20    41 1   
    42    20    42 1   
@<TRIPOS>SUBSTRUCTURE
     1 M9E         1 TEMP              0 ****  ****    0 ROOT
