@<TRIPOS>MOLECULE
M9E
   42    42     1     0     0
SMALL
No Charge or Current Charge


@<TRIPOS>ATOM
      1 O1           5.3920    -1.8570    -0.1390 o          1 M9E      -0.604600
      2 C1           5.0180    -0.6880    -0.1310 c          1 M9E       0.600600
      3 N1           3.6800    -0.3590    -0.1220 ns         1 M9E      -0.506900
      4 C2           2.5920    -1.3330    -0.1170 c3         1 M9E       0.148300
      5 C3           1.2390    -0.6400    -0.1150 ca         1 M9E      -0.106300
      6 C4           0.6070    -0.3120    -1.3300 ca         1 M9E      -0.099250
      7 C5          -0.6420     0.3330    -1.3290 ca         1 M9E      -0.099250
      8 C6          -1.2720     0.6590    -0.1130 ca         1 M9E      -0.106300
      9 C7          -2.6250     1.3520    -0.1110 c3         1 M9E       0.148300
     10 N2          -3.7130     0.3780    -0.1150 ns         1 M9E      -0.506900
     11 C8          -5.0510     0.7070    -0.1200 c          1 M9E       0.600600
     12 C9          -6.0330    -0.5100    -0.1260 c3         1 M9E       0.079800
     13 N3          -7.3920    -0.2400     0.4510 n7         1 M9E      -0.849400
     14 C10         -8.3540    -1.3540     0.3480 c3         1 M9E       0.143600
     15 O2          -5.4260     1.8760    -0.1270 o          1 M9E      -0.604600
     16 C11         -0.6400     0.3310     1.1020 ca         1 M9E      -0.099250
     17 C12          0.6090    -0.3130     1.1010 ca         1 M9E      -0.099250
     18 C13          6.0000     0.5290    -0.1380 c3         1 M9E       0.079800
     19 N4           7.3600     0.2580     0.4350 n7         1 M9E      -0.849400
     20 C14          8.3230     1.3720     0.3310 c3         1 M9E       0.143600
     21 H1           3.4450     0.6260    -0.1170 hn         1 M9E       0.317500
     22 H2           2.6810    -1.9750    -1.0040 h1         1 M9E       0.062700
     23 H3           2.6860    -1.9700     0.7730 h1         1 M9E       0.062700
     24 H4           1.0840    -0.5560    -2.2770 ha         1 M9E       0.119000
     25 H5          -1.1210     0.5780    -2.2750 ha         1 M9E       0.119000
     26 H6          -2.7170     1.9890     0.7790 h1         1 M9E       0.062700
     27 H7          -2.7160     1.9950    -0.9970 h1         1 M9E       0.062700
     28 H8          -3.4780    -0.6070    -0.1110 hn         1 M9E       0.317500
     29 H9          -6.1160    -0.8400    -1.1700 h1         1 M9E       0.043700
     30 H10         -5.5500    -1.3260     0.4290 h1         1 M9E       0.043700
     31 H11         -7.7880     0.5810    -0.0330 hn         1 M9E       0.433000
     32 H13         -9.3140    -1.0790     0.8060 h1         1 M9E       0.031033
     33 H14         -8.5400    -1.6160    -0.7020 h1         1 M9E       0.031033
     34 H15         -7.9760    -2.2470     0.8630 h1         1 M9E       0.031033
     35 H16         -1.1170     0.5760     2.0490 ha         1 M9E       0.119000
     36 H17          1.0880    -0.5590     2.0470 ha         1 M9E       0.119000
     37 H18          6.0810     0.8600    -1.1820 h1         1 M9E       0.043700
     38 H19          5.5180     1.3440     0.4190 h1         1 M9E       0.043700
     39 H20          7.7550    -0.5620    -0.0500 hn         1 M9E       0.433000
     40 H22          9.2840     1.0970     0.7860 h1         1 M9E       0.031033
     41 H23          8.5060     1.6350    -0.7200 h1         1 M9E       0.031033
     42 H24          7.9450     2.2650     0.8470 h1         1 M9E       0.031033
@<TRIPOS>BOND
     1     1     2 2   
     2     2     3 1   
     3     2    18 1   
     4     3     4 1   
     5     3    21 1   
     6     4     5 1   
     7     4    22 1   
     8     4    23 1   
     9     5     6 ar  
    10     5    17 ar  
    11     6     7 ar  
    12     6    24 1   
    13     7     8 ar  
    14     7    25 1   
    15     8     9 1   
    16     8    16 ar  
    17     9    10 1   
    18     9    26 1   
    19     9    27 1   
    20    10    11 1   
    21    10    28 1   
    22    11    12 1   
    23    11    15 2   
    24    12    13 1   
    25    12    29 1   
    26    12    30 1   
    27    13    14 1   
    28    13    31 1   
    29    14    32 1   
    30    14    33 1   
    31    14    34 1   
    32    16    17 ar  
    33    16    35 1   
    34    17    36 1   
    35    18    19 1   
    36    18    37 1   
    37    18    38 1   
    38    19    20 1   
    39    19    39 1   
    40    20    40 1   
    41    20    41 1   
    42    20    42 1   
@<TRIPOS>SUBSTRUCTURE
     1 M9E         1 TEMP              0 ****  ****    0 ROOT
