@<TRIPOS>MOLECULE
M9F
   48    47     1     0     0
SMALL
abcg2


@<TRIPOS>ATOM
      1 CAU          1.6840     0.6620    -0.0360 c          1 M9F       0.609100
      2 OAV          1.6240     1.2760     1.0180 o          1 M9F      -0.609100
      3 O            8.6950    -0.7620    -0.2190 o          1 M9F      -0.743000
      4 CAT          2.9690     0.0770    -0.5810 c3         1 M9F      -0.152400
      5 C            7.7110    -1.3920     0.2080 c          1 M9F       0.689000
      6 CA           6.5450    -0.5920     0.8260 c3         1 M9F       0.017500
      7 CB           5.3670    -0.5830    -0.1540 c3         1 M9F      -0.052400
      8 CAS          4.1000     0.0240     0.4340 c3         1 M9F      -0.064400
      9 N            6.8730     0.7680     1.2260 n8         1 M9F      -0.995200
     10 NAC          0.6080     0.4610    -0.8240 ns         1 M9F      -0.499900
     11 CAD         -0.7090     0.9460    -0.5260 c3         1 M9F       0.038700
     12 CAG         -1.7300    -0.1030    -0.9760 c          1 M9F       0.596100
     13 OAH         -1.4390    -0.9460    -1.8130 o          1 M9F      -0.622100
     14 CAE         -1.0330     2.2660    -1.2360 c3         1 M9F       0.061600
     15 SAF          0.1530     3.5590    -0.7410 sh         1 M9F      -0.410800
     16 CAN         -7.0750     0.9580     1.4520 c3         1 M9F       0.024900
     17 SAM         -5.4830     0.1120     1.3540 ss         1 M9F      -0.412000
     18 CAK         -5.3670    -0.2590    -0.4370 c3         1 M9F       0.092300
     19 CAO         -5.5930     0.9660    -1.3060 c3         1 M9F      -0.088100
     20 CAJ         -4.0060    -0.9120    -0.6870 c3         1 M9F      -0.038300
     21 CAP         -3.8530    -2.2360     0.1140 c          1 M9F       0.723000
     22 OAR         -4.7100    -3.0990    -0.1570 o          1 M9F      -0.708000
     23 OAQ         -2.9210    -2.3120     0.9280 o          1 M9F      -0.708000
     24 NAI         -2.9420     0.0320    -0.4350 ns         1 M9F      -0.457900
     25 HAT1         2.7680    -0.9200    -0.9860 hc         1 M9F       0.050200
     26 HAT2         3.2710     0.6870    -1.4410 hc         1 M9F       0.050200
     27 HA           6.2170    -1.1300     1.7230 h1         1 M9F       0.041700
     28 HB1C         5.6560    -0.0300    -1.0570 hc         1 M9F       0.034200
     29 HB2C         5.1700    -1.6090    -0.4720 hc         1 M9F       0.034200
     30 HAS1         4.3160     1.0280     0.8000 hc         1 M9F       0.053200
     31 HAS2         3.7920    -0.5640     1.3040 hc         1 M9F       0.053200
     32 HN1          7.5680     0.7320     1.9630 hn         1 M9F       0.376500
     33 HN2          7.3480     1.2160     0.4500 hn         1 M9F       0.376500
     34 HAC          0.7100    -0.0840    -1.6670 hn         1 M9F       0.330500
     35 HAD         -0.7930     1.0910     0.5540 h1         1 M9F       0.101700
     36 HAE1        -0.9860     2.1260    -2.3170 h1         1 M9F       0.056700
     37 HAE2        -2.0420     2.5860    -0.9750 h1         1 M9F       0.056700
     38 HAF         -0.3740     4.5300    -1.4970 hs         1 M9F       0.164800
     39 HAN1        -7.0410     1.9510     1.0090 h1         1 M9F       0.041700
     40 HAN2        -7.8580     0.3720     0.9730 h1         1 M9F       0.041700
     41 HAN3        -7.3170     1.0590     2.5090 h1         1 M9F       0.041700
     42 HAK         -6.1240    -1.0130    -0.6610 h1         1 M9F       0.092700
     43 HAO1        -6.6030     1.3580    -1.1910 hc         1 M9F       0.025367
     44 HAO2        -4.8930     1.7680    -1.0740 hc         1 M9F       0.025367
     45 HAO3        -5.4660     0.7000    -2.3570 hc         1 M9F       0.025367
     46 HAJ         -3.9790    -1.1680    -1.7500 h1         1 M9F       0.066700
     47 HAI         -3.0540     0.6670     0.3410 hn         1 M9F       0.311500
     48 OXT          7.5560    -2.6350     0.1700 o          1 M9F      -0.743000
@<TRIPOS>BOND
     1     1     2 2   
     2     1     4 1   
     3     1    10 1   
     4     3     5 1   
     5     4     8 1   
     6     4    25 1   
     7     4    26 1   
     8     5     6 1   
     9     5    48 1   
    10     6     7 1   
    11     6     9 1   
    12     6    27 1   
    13     7     8 1   
    14     7    28 1   
    15     7    29 1   
    16     8    30 1   
    17     8    31 1   
    18     9    32 1   
    19     9    33 1   
    20    10    11 1   
    21    10    34 1   
    22    11    12 1   
    23    11    14 1   
    24    11    35 1   
    25    12    13 2   
    26    12    24 1   
    27    14    15 1   
    28    14    36 1   
    29    14    37 1   
    30    15    38 1   
    31    16    17 1   
    32    16    39 1   
    33    16    40 1   
    34    16    41 1   
    35    17    18 1   
    36    18    19 1   
    37    18    20 1   
    38    18    42 1   
    39    19    43 1   
    40    19    44 1   
    41    19    45 1   
    42    20    21 1   
    43    20    24 1   
    44    20    46 1   
    45    21    22 1   
    46    21    23 1   
    47    24    47 1   
@<TRIPOS>SUBSTRUCTURE
     1 M9F         1 TEMP              0 ****  ****    0 ROOT
