@<TRIPOS>MOLECULE
M9F
   48    47     1     0     0
SMALL
No Charge or Current Charge


@<TRIPOS>ATOM
      1 CAU          1.8910     1.6490     0.2250 c          1 M9F       0.609100
      2 OAV          1.9230     2.2370     1.2970 o          1 M9F      -0.609100
      3 O            8.1560    -1.2200    -1.3400 o          1 M9F      -0.743000
      4 CAT          3.1570     1.3310    -0.5800 c3         1 M9F      -0.152400
      5 C            7.1260    -1.8710    -1.2160 c          1 M9F       0.689000
      6 CA           6.0450    -1.3820    -0.1640 c3         1 M9F       0.017500
      7 CB           5.2450    -0.1800    -0.7350 c3         1 M9F      -0.052400
      8 CAS          3.9590     0.1690     0.0540 c3         1 M9F      -0.064400
      9 N            6.5620    -1.0780     1.2220 n8         1 M9F      -0.995200
     10 NAC          0.7140     1.2390    -0.3600 ns         1 M9F      -0.499900
     11 CAD         -0.6450     1.4770     0.1910 c3         1 M9F       0.038700
     12 CAG         -1.5100     0.1900     0.1000 c          1 M9F       0.596100
     13 OAH         -1.1880    -0.7880    -0.5660 o          1 M9F      -0.622100
     14 CAE         -1.3530     2.6510    -0.5310 c3         1 M9F       0.061600
     15 SAF         -0.4050     4.2470    -0.5590 sh         1 M9F      -0.410800
     16 CAN         -7.2690     0.8130    -0.7000 c3         1 M9F       0.024900
     17 SAM         -5.5760     1.1070    -0.0190 ss         1 M9F      -0.412000
     18 CAK         -4.8370    -0.5850    -0.2180 c3         1 M9F       0.092300
     19 CAO         -4.3480    -0.7620    -1.6720 c3         1 M9F      -0.088100
     20 CAJ         -3.7290    -0.8300     0.8420 c3         1 M9F      -0.038300
     21 CAP         -4.3510    -1.0110     2.2610 c          1 M9F       0.723000
     22 OAR         -4.9260    -2.0650     2.4980 o          1 M9F      -0.708000
     23 OAQ         -4.1600    -0.1490     3.1110 o          1 M9F      -0.708000
     24 NAI         -2.6790     0.2250     0.8320 ns         1 M9F      -0.457900
     25 HAT1         2.8880     1.0490    -1.6050 hc         1 M9F       0.050200
     26 HAT2         3.7940     2.2230    -0.5970 hc         1 M9F       0.050200
     27 HA           5.3360    -2.2150    -0.0550 h1         1 M9F       0.041700
     28 HB1C         5.8960     0.7020    -0.7850 hc         1 M9F       0.034200
     29 HB2C         4.9610    -0.4150    -1.7680 hc         1 M9F       0.034200
     30 HAS1         4.2220     0.4390     1.0850 hc         1 M9F       0.053200
     31 HAS2         3.3180    -0.7200     0.1110 hc         1 M9F       0.053200
     32 HN1          7.0380    -1.9100     1.5900 hn         1 M9F       0.376500
     33 HN2          7.3230    -0.3940     1.1350 hn         1 M9F       0.376500
     34 HAC          0.7950     0.7260    -1.2300 hn         1 M9F       0.330500
     35 HAD         -0.5620     1.7250     1.2570 h1         1 M9F       0.101700
     36 HAE1        -1.5500     2.3620    -1.5720 h1         1 M9F       0.056700
     37 HAE2        -2.3230     2.8430    -0.0530 h1         1 M9F       0.056700
     38 HAF         -1.3270     4.9570    -1.2530 hs         1 M9F       0.164800
     39 HAN1        -7.2020     0.5080    -1.7520 h1         1 M9F       0.041700
     40 HAN2        -7.7690     0.0240    -0.1250 h1         1 M9F       0.041700
     41 HAN3        -7.8580     1.7360    -0.6310 h1         1 M9F       0.041700
     42 HAK         -5.6300    -1.3260    -0.0440 h1         1 M9F       0.092700
     43 HAO1        -5.1870    -0.6860    -2.3740 hc         1 M9F       0.025367
     44 HAO2        -3.6130     0.0070    -1.9380 hc         1 M9F       0.025367
     45 HAO3        -3.8850    -1.7460    -1.8060 hc         1 M9F       0.025367
     46 HAJ         -3.2490    -1.7900     0.6120 h1         1 M9F       0.066700
     47 HAI         -2.8540     1.0560     1.3860 hn         1 M9F       0.311500
     48 OXT          6.9450    -2.9410    -1.7800 o          1 M9F      -0.743000
@<TRIPOS>BOND
     1     1     2 2   
     2     1     4 1   
     3     1    10 1   
     4     3     5 1   
     5     4     8 1   
     6     4    25 1   
     7     4    26 1   
     8     5     6 1   
     9     5    48 1   
    10     6     7 1   
    11     6     9 1   
    12     6    27 1   
    13     7     8 1   
    14     7    28 1   
    15     7    29 1   
    16     8    30 1   
    17     8    31 1   
    18     9    32 1   
    19     9    33 1   
    20    10    11 1   
    21    10    34 1   
    22    11    12 1   
    23    11    14 1   
    24    11    35 1   
    25    12    13 2   
    26    12    24 1   
    27    14    15 1   
    28    14    36 1   
    29    14    37 1   
    30    15    38 1   
    31    16    17 1   
    32    16    39 1   
    33    16    40 1   
    34    16    41 1   
    35    17    18 1   
    36    18    19 1   
    37    18    20 1   
    38    18    42 1   
    39    19    43 1   
    40    19    44 1   
    41    19    45 1   
    42    20    21 1   
    43    20    24 1   
    44    20    46 1   
    45    21    22 1   
    46    21    23 1   
    47    24    47 1   
@<TRIPOS>SUBSTRUCTURE
     1 M9F         1 TEMP              0 ****  ****    0 ROOT
