@<TRIPOS>MOLECULE
M9G
   72    76     1     0     0
SMALL
No Charge or Current Charge


@<TRIPOS>ATOM
      1 C27          4.3220     2.3950     1.9380 cc         1 M9G      -0.201000
      2 C25          5.4510     3.1050     1.7080 cd         1 M9G       0.166300
      3 C26          6.4810     3.6450     2.6580 c3         1 M9G      -0.134400
      4 O24          5.6010     3.3080     0.3620 os         1 M9G      -0.063700
      5 N23          4.4910     2.6870    -0.3180 nd         1 M9G      -0.351300
      6 C22          3.7650     2.1590     0.6650 cc         1 M9G       0.225500
      7 C20          2.4860     1.3960     0.4920 c          1 M9G       0.540600
      8 O21          1.8270     0.9350     1.4180 o          1 M9G      -0.593100
      9 C38          3.7830    -3.8850     1.3320 c5         1 M9G      -0.090400
     10 C32          4.8480    -2.3440    -0.3230 ca         1 M9G      -0.081300
     11 C36          6.8660    -1.8060    -1.6010 ca         1 M9G      -0.112500
     12 C33          5.0840    -1.2060     0.4830 ca         1 M9G      -0.092500
     13 C16         -0.3930     1.5600    -1.0350 c          1 M9G       0.585100
     14 C18          0.8390     0.6360    -1.3140 c3         1 M9G       0.058700
     15 C28          0.6500    -0.8320    -0.8290 c3         1 M9G      -0.170400
     16 C29          1.8970    -1.7050    -1.0490 c          1 M9G       0.610100
     17 C40          1.6350    -2.8030     1.2400 c5         1 M9G       0.103000
     18 C39          2.2990    -4.1290     1.6940 c5         1 M9G      -0.096400
     19 C31          3.6470    -3.2710    -0.0930 c5         1 M9G       0.161000
     20 C37          5.7510    -2.6290    -1.3690 ca         1 M9G      -0.092500
     21 C35          7.0960    -0.6860    -0.7860 ca         1 M9G      -0.104000
     22 C34          6.2050    -0.3890     0.2570 ca         1 M9G      -0.112500
     23 N30          2.4100    -2.4670     0.0230 n          1 M9G      -0.411800
     24 N19          2.0960     1.2610    -0.8310 ns         1 M9G      -0.467900
     25 O41          2.4150    -1.7600    -2.1580 o          1 M9G      -0.606100
     26 C10         -9.9500    -0.9360     1.2310 ca         1 M9G      -0.082000
     27 C13         -5.2400    -1.1080    -1.1320 cc         1 M9G       0.259900
     28 C01         -3.1870     2.6790    -2.2940 c3         1 M9G      -0.113100
     29 C02         -2.9230     1.6820    -1.1450 c3         1 M9G       0.095400
     30 C03         -4.0620     0.6820    -0.9920 cd         1 M9G       0.395800
     31 C05         -6.0130    -0.2310    -0.4060 cd         1 M9G      -0.151000
     32 C06         -7.3630    -0.4510     0.1640 ca         1 M9G      -0.039000
     33 C07         -8.0500     0.5510     0.8990 ca         1 M9G       0.166000
     34 C09         -9.3290     0.3080     1.4250 ca         1 M9G      -0.143000
     35 C11         -9.2840    -1.9370     0.5070 ca         1 M9G      -0.120000
     36 C12         -8.0030    -1.6970    -0.0210 ca         1 M9G      -0.074000
     37 F08         -7.4950     1.7670     1.1140 f          1 M9G      -0.188000
     38 N04         -5.2420     0.9190    -0.3200 na         1 M9G      -0.275500
     39 N14         -4.0450    -0.5480    -1.4910 nc         1 M9G      -0.696000
     40 N15         -1.6250     1.0120    -1.3290 ns         1 M9G      -0.503900
     41 H16          3.9190     2.0670     2.8900 ha         1 M9G       0.168000
     42 H3           7.4590     3.1850     2.4750 hc         1 M9G       0.063033
     43 H4           6.5890     4.7290     2.5410 hc         1 M9G       0.063033
     44 H5           6.2020     3.4430     3.6990 hc         1 M9G       0.063033
     45 H23          4.2450    -3.2030     2.0540 hc         1 M9G       0.057700
     46 H24          4.3770    -4.8060     1.3310 hc         1 M9G       0.057700
     47 H21          7.5540    -2.0380    -2.4110 ha         1 M9G       0.109000
     48 H18          4.4010    -0.9580     1.2920 ha         1 M9G       0.114000
     49 H15          0.9140     0.5960    -2.4090 h1         1 M9G       0.086700
     50 H6           0.3390    -0.8340     0.2190 hc         1 M9G       0.081200
     51 H7          -0.1600    -1.2990    -1.3990 hc         1 M9G       0.081200
     52 H27          0.5650    -2.9440     1.0370 h1         1 M9G       0.054200
     53 H28          1.7490    -2.0150     1.9970 h1         1 M9G       0.054200
     54 H25          1.8930    -4.9830     1.1380 hc         1 M9G       0.054200
     55 H26          2.1480    -4.3300     2.7610 hc         1 M9G       0.054200
     56 H17          3.5500    -4.0420    -0.8700 h1         1 M9G       0.062700
     57 H22          5.5870    -3.4960    -2.0050 ha         1 M9G       0.114000
     58 H20          7.9610    -0.0510    -0.9620 ha         1 M9G       0.110000
     59 H19          6.3860     0.4740     0.8920 ha         1 M9G       0.109000
     60 H32          2.7130     1.6900    -1.5130 hn         1 M9G       0.348500
     61 H2          -5.4660    -2.1240    -1.4280 h4         1 M9G       0.040100
     62 H8          -4.1360     3.2050    -2.1360 hc         1 M9G       0.049700
     63 H9          -2.3900     3.4300    -2.3520 hc         1 M9G       0.049700
     64 H10         -3.2400     2.1560    -3.2560 hc         1 M9G       0.049700
     65 H11         -2.8740     2.2530    -0.2080 h1         1 M9G       0.080700
     66 H12         -9.8390     1.0880     1.9850 ha         1 M9G       0.135000
     67 H13         -9.7620    -2.9030     0.3540 ha         1 M9G       0.122000
     68 H14         -7.5150    -2.4930    -0.5770 ha         1 M9G       0.123000
     69 H29         -5.4920     1.7820     0.1460 hn         1 M9G       0.366000
     70 H31         -1.6400     0.0630    -1.6870 hn         1 M9G       0.343500
     71 O17         -0.2960     2.6950    -0.5850 o          1 M9G      -0.587100
     72 H1         -10.9410    -1.1230     1.6390 ha         1 M9G       0.122000
@<TRIPOS>BOND
     1     1     2 2   
     2     1     6 1   
     3     1    41 1   
     4     2     3 1   
     5     2     4 1   
     6     3    42 1   
     7     3    43 1   
     8     3    44 1   
     9     4     5 1   
    10     5     6 2   
    11     6     7 1   
    12     7     8 2   
    13     7    24 1   
    14     9    18 1   
    15     9    19 1   
    16     9    45 1   
    17     9    46 1   
    18    10    12 ar  
    19    10    19 1   
    20    10    20 ar  
    21    11    20 ar  
    22    11    21 ar  
    23    11    47 1   
    24    12    22 ar  
    25    12    48 1   
    26    13    14 1   
    27    13    40 1   
    28    13    71 2   
    29    14    15 1   
    30    14    24 1   
    31    14    49 1   
    32    15    16 1   
    33    15    50 1   
    34    15    51 1   
    35    16    23 1   
    36    16    25 2   
    37    17    18 1   
    38    17    23 1   
    39    17    52 1   
    40    17    53 1   
    41    18    54 1   
    42    18    55 1   
    43    19    23 1   
    44    19    56 1   
    45    20    57 1   
    46    21    22 ar  
    47    21    58 1   
    48    22    59 1   
    49    24    60 1   
    50    26    34 ar  
    51    26    35 ar  
    52    26    72 1   
    53    27    31 2   
    54    27    39 1   
    55    27    61 1   
    56    28    29 1   
    57    28    62 1   
    58    28    63 1   
    59    28    64 1   
    60    29    30 1   
    61    29    40 1   
    62    29    65 1   
    63    30    38 1   
    64    30    39 2   
    65    31    32 1   
    66    31    38 1   
    67    32    33 ar  
    68    32    36 ar  
    69    33    34 ar  
    70    33    37 1   
    71    34    66 1   
    72    35    36 ar  
    73    35    67 1   
    74    36    68 1   
    75    38    69 1   
    76    40    70 1   
@<TRIPOS>SUBSTRUCTURE
     1 M9G         1 TEMP              0 ****  ****    0 ROOT
