@<TRIPOS>MOLECULE
M9G
   72    76     1     0     0
SMALL
bcc


@<TRIPOS>ATOM
      1 C27          4.4470     2.5250     1.7940 cc         1 M9G      -0.349600
      2 C25          5.5170     3.2140     1.3280 cd         1 M9G       0.276000
      3 C26          6.6860     3.8390     1.9830 c3         1 M9G      -0.134400
      4 O24          5.4260     3.3030    -0.0080 os         1 M9G      -0.108100
      5 N23          4.3070     2.6800    -0.4400 nd         1 M9G      -0.351300
      6 C22          3.7200     2.2130     0.6240 cc         1 M9G       0.290800
      7 C20          2.4420     1.4500     0.5530 c          1 M9G       0.607600
      8 O21          1.9160     1.0620     1.5830 o          1 M9G      -0.593100
      9 C38          3.8010    -3.9540     1.3080 c5         1 M9G      -0.090400
     10 C32          4.7890    -2.3300    -0.3630 ca         1 M9G      -0.081300
     11 C36          6.8000    -1.9630    -1.6510 ca         1 M9G      -0.130500
     12 C33          5.0550    -1.1630     0.3490 ca         1 M9G      -0.110500
     13 C16         -0.4500     1.4520    -0.6050 c          1 M9G       0.652100
     14 C18          0.7430     0.5670    -0.9920 c3         1 M9G       0.058700
     15 C28          0.6410    -0.8370    -0.3810 c3         1 M9G      -0.170400
     16 C29          1.8680    -1.6530    -0.7400 c          1 M9G       0.677100
     17 C40          1.7330    -2.7870     1.4830 c5         1 M9G       0.103000
     18 C39          2.3860    -4.1140     1.8460 c5         1 M9G      -0.096400
     19 C31          3.6080    -3.1990    -0.0150 c5         1 M9G       0.161000
     20 C37          5.6690    -2.7190    -1.3650 ca         1 M9G      -0.110500
     21 C35          7.0570    -0.8000    -0.9380 ca         1 M9G      -0.122000
     22 C34          6.1790    -0.4040     0.0620 ca         1 M9G      -0.130500
     23 N30          2.3810    -2.4400     0.2190 n          1 M9G      -0.478800
     24 N19          1.9840     1.2270    -0.6840 ns         1 M9G      -0.534900
     25 O41          2.3650    -1.5810    -1.8560 o          1 M9G      -0.606100
     26 C10        -10.0950    -0.8760     0.5280 ca         1 M9G      -0.100000
     27 C13         -5.0790    -1.2160    -0.9210 cc         1 M9G       0.325200
     28 C01         -3.1800     2.7020    -1.7280 c3         1 M9G      -0.113100
     29 C02         -2.8940     1.6240    -0.6790 c3         1 M9G       0.095400
     30 C03         -3.9750     0.5880    -0.6600 cd         1 M9G       0.395800
     31 C05         -5.9680    -0.3080    -0.4040 cd         1 M9G      -0.165600
     32 C06         -7.3810    -0.4650    -0.0860 ca         1 M9G      -0.039000
     33 C07         -8.0490     0.2990     0.8650 ca         1 M9G       0.130900
     34 C09         -9.3800     0.1180     1.1790 ca         1 M9G      -0.161000
     35 C11         -9.4660    -1.6640    -0.4280 ca         1 M9G      -0.138000
     36 C12         -8.1320    -1.4540    -0.7320 ca         1 M9G      -0.092000
     37 F08         -7.3690     1.2600     1.5190 f          1 M9G      -0.152900
     38 N04         -5.2310     0.8390    -0.2440 na         1 M9G      -0.275900
     39 N14         -3.8510    -0.6470    -1.0740 nc         1 M9G      -0.696000
     40 N15         -1.6460     0.9370    -0.9260 ns         1 M9G      -0.570900
     41 H16          4.2130     2.2740     2.8140 ha         1 M9G       0.186000
     42 H3           7.6210     3.4220     1.6060 hc         1 M9G       0.063033
     43 H4           6.7080     4.9150     1.8080 hc         1 M9G       0.063033
     44 H5           6.6420     3.6660     3.0550 hc         1 M9G       0.063033
     45 H23          4.3980    -3.3520     1.9980 hc         1 M9G       0.057700
     46 H24          4.3220    -4.8980     1.1560 hc         1 M9G       0.057700
     47 H21          7.4760    -2.2820    -2.4340 ha         1 M9G       0.127000
     48 H18          4.3800    -0.8410     1.1340 ha         1 M9G       0.132000
     49 H15          0.7260     0.4630    -2.0780 h1         1 M9G       0.086700
     50 H6           0.4820    -0.7710     0.6910 hc         1 M9G       0.081200
     51 H7          -0.2270    -1.3570    -0.7950 hc         1 M9G       0.081200
     52 H27          0.6540    -2.8840     1.3640 h1         1 M9G       0.054200
     53 H28          1.9240    -2.0230     2.2420 h1         1 M9G       0.054200
     54 H25          1.8730    -4.9330     1.3380 hc         1 M9G       0.054200
     55 H26          2.3540    -4.3090     2.9170 hc         1 M9G       0.054200
     56 H17          3.4480    -3.9180    -0.8260 h1         1 M9G       0.062700
     57 H22          5.4700    -3.6220    -1.9290 ha         1 M9G       0.132000
     58 H20          7.9340    -0.2060    -1.1610 ha         1 M9G       0.128000
     59 H19          6.3740     0.4990     0.6280 ha         1 M9G       0.127000
     60 H32          2.5010     1.6120    -1.4590 hn         1 M9G       0.348500
     61 H2          -5.2630    -2.2500    -1.1700 h4         1 M9G       0.040100
     62 H8          -4.1220     3.2080    -1.5180 hc         1 M9G       0.049700
     63 H9          -2.3910     3.4530    -1.7250 hc         1 M9G       0.049700
     64 H10         -3.2410     2.2620    -2.7230 hc         1 M9G       0.049700
     65 H11         -2.8410     2.0980     0.3050 h1         1 M9G       0.080700
     66 H12         -9.8460     0.7440     1.9300 ha         1 M9G       0.153000
     67 H13        -10.0180    -2.4360    -0.9450 ha         1 M9G       0.140000
     68 H14         -7.6570    -2.0590    -1.4940 ha         1 M9G       0.141000
     69 H29         -5.5700     1.7200     0.1060 hn         1 M9G       0.315700
     70 H31         -1.7090     0.0520    -1.4080 hn         1 M9G       0.343500
     71 O17         -0.3090     2.5370    -0.0700 o          1 M9G      -0.587100
     72 H1         -11.1390    -1.0280     0.7650 ha         1 M9G       0.140000
@<TRIPOS>BOND
     1     1     2 2   
     2     1     6 1   
     3     1    41 1   
     4     2     3 1   
     5     2     4 1   
     6     3    42 1   
     7     3    43 1   
     8     3    44 1   
     9     4     5 1   
    10     5     6 2   
    11     6     7 1   
    12     7     8 2   
    13     7    24 1   
    14     9    18 1   
    15     9    19 1   
    16     9    45 1   
    17     9    46 1   
    18    10    12 ar  
    19    10    19 1   
    20    10    20 ar  
    21    11    20 ar  
    22    11    21 ar  
    23    11    47 1   
    24    12    22 ar  
    25    12    48 1   
    26    13    14 1   
    27    13    40 1   
    28    13    71 2   
    29    14    15 1   
    30    14    24 1   
    31    14    49 1   
    32    15    16 1   
    33    15    50 1   
    34    15    51 1   
    35    16    23 1   
    36    16    25 2   
    37    17    18 1   
    38    17    23 1   
    39    17    52 1   
    40    17    53 1   
    41    18    54 1   
    42    18    55 1   
    43    19    23 1   
    44    19    56 1   
    45    20    57 1   
    46    21    22 ar  
    47    21    58 1   
    48    22    59 1   
    49    24    60 1   
    50    26    34 ar  
    51    26    35 ar  
    52    26    72 1   
    53    27    31 2   
    54    27    39 1   
    55    27    61 1   
    56    28    29 1   
    57    28    62 1   
    58    28    63 1   
    59    28    64 1   
    60    29    30 1   
    61    29    40 1   
    62    29    65 1   
    63    30    38 1   
    64    30    39 2   
    65    31    32 1   
    66    31    38 1   
    67    32    33 ar  
    68    32    36 ar  
    69    33    34 ar  
    70    33    37 1   
    71    34    66 1   
    72    35    36 ar  
    73    35    67 1   
    74    36    68 1   
    75    38    69 1   
    76    40    70 1   
@<TRIPOS>SUBSTRUCTURE
     1 M9G         1 TEMP              0 ****  ****    0 ROOT
