@<TRIPOS>MOLECULE
M9H
   42    42     1     0     0
SMALL
No Charge or Current Charge


@<TRIPOS>ATOM
      1 O1          -4.6510     1.7710     2.0050 o          1 M9H      -0.597600
      2 C1          -4.5040     1.2570     0.9020 c          1 M9H       0.601100
      3 N1          -3.3580     0.5770     0.5620 ns         1 M9H      -0.507400
      4 C2          -2.2070     0.3960     1.4420 c3         1 M9H       0.146800
      5 C3          -1.0990    -0.3740     0.7410 ca         1 M9H      -0.110800
      6 C4          -0.1170     0.3120    -0.0000 ca         1 M9H      -0.102000
      7 C5           0.9100    -0.3950    -0.6550 ca         1 M9H      -0.110800
      8 C6           1.9700     0.3520    -1.4520 c3         1 M9H       0.146800
      9 N2           3.1260     0.6840    -0.6180 ns         1 M9H      -0.507400
     10 C7           4.2800    -0.0660    -0.5370 c          1 M9H       0.601100
     11 C8           5.3560     0.4850     0.4560 c3         1 M9H       0.077800
     12 N3           6.7740     0.1170     0.1310 n7         1 M9H      -0.846900
     13 C9           7.7800     0.5410     1.1250 c3         1 M9H       0.143600
     14 O2           4.4380    -1.0890    -1.1960 o          1 M9H      -0.597600
     15 C10          0.9520    -1.7990    -0.5630 ca         1 M9H      -0.090000
     16 C11         -0.0260    -2.4890     0.1730 ca         1 M9H      -0.111000
     17 C12         -1.0500    -1.7790     0.8220 ca         1 M9H      -0.090000
     18 C13         -5.5900     1.3060    -0.2160 c3         1 M9H       0.077800
     19 N4          -5.9780    -0.0340    -0.7680 n7         1 M9H      -0.846900
     20 C14         -6.9780     0.0000    -1.8540 c3         1 M9H       0.143600
     21 H1          -3.3440     0.1500    -0.3570 hn         1 M9H       0.313500
     22 H2          -1.8360     1.3810     1.7540 h1         1 M9H       0.065200
     23 H3          -2.5270    -0.1460     2.3420 h1         1 M9H       0.065200
     24 H4          -0.1540     1.3970    -0.0670 ha         1 M9H       0.108000
     25 H5           2.2890    -0.2530    -2.3100 h1         1 M9H       0.065200
     26 H6           1.5440     1.2840    -1.8480 h1         1 M9H       0.065200
     27 H7           3.0750     1.5110    -0.0340 hn         1 M9H       0.313500
     28 H8           5.2530     1.5780     0.4820 h1         1 M9H       0.043950
     29 H9           5.0800     0.1140     1.4520 h1         1 M9H       0.043950
     30 H10          6.8250    -0.9090     0.0320 hn         1 M9H       0.432000
     31 H12          7.5850     0.0790     2.1020 h1         1 M9H       0.030867
     32 H13          8.7880     0.2470     0.8040 h1         1 M9H       0.030867
     33 H14          7.7680     1.6320     1.2520 h1         1 M9H       0.030867
     34 H15          1.7430    -2.3560    -1.0620 ha         1 M9H       0.122500
     35 H16          0.0090    -3.5740     0.2400 ha         1 M9H       0.116000
     36 H17         -1.8050    -2.3210     1.3890 ha         1 M9H       0.122500
     37 H18         -6.4680     1.8190     0.1980 h1         1 M9H       0.043950
     38 H19         -5.1880     1.9380    -1.0190 h1         1 M9H       0.043950
     39 H20         -6.3570    -0.6100    -0.0010 hn         1 M9H       0.432000
     40 H22         -6.6110     0.5900    -2.7040 h1         1 M9H       0.030867
     41 H23         -7.1940    -1.0150    -2.2120 h1         1 M9H       0.030867
     42 H24         -7.9190     0.4470    -1.5060 h1         1 M9H       0.030867
@<TRIPOS>BOND
     1     1     2 2   
     2     2     3 1   
     3     2    18 1   
     4     3     4 1   
     5     3    21 1   
     6     4     5 1   
     7     4    22 1   
     8     4    23 1   
     9     5     6 ar  
    10     5    17 ar  
    11     6     7 ar  
    12     6    24 1   
    13     7     8 1   
    14     7    15 ar  
    15     8     9 1   
    16     8    25 1   
    17     8    26 1   
    18     9    10 1   
    19     9    27 1   
    20    10    11 1   
    21    10    14 2   
    22    11    12 1   
    23    11    28 1   
    24    11    29 1   
    25    12    13 1   
    26    12    30 1   
    27    13    31 1   
    28    13    32 1   
    29    13    33 1   
    30    15    16 ar  
    31    15    34 1   
    32    16    17 ar  
    33    16    35 1   
    34    17    36 1   
    35    18    19 1   
    36    18    37 1   
    37    18    38 1   
    38    19    20 1   
    39    19    39 1   
    40    20    40 1   
    41    20    41 1   
    42    20    42 1   
@<TRIPOS>SUBSTRUCTURE
     1 M9H         1 TEMP              0 ****  ****    0 ROOT
