@<TRIPOS>MOLECULE
M9H
   42    42     1     0     0
SMALL
bcc


@<TRIPOS>ATOM
      1 O1          -4.5400     0.7770     1.4420 o          1 M9H      -0.597600
      2 C1          -4.5660     0.6400     0.2290 c          1 M9H       0.668100
      3 N1          -3.5600     1.0080    -0.5860 ns         1 M9H      -0.574400
      4 C2          -2.3510     1.6550    -0.1460 c3         1 M9H       0.146800
      5 C3          -1.1150     0.8020    -0.3000 ca         1 M9H      -0.110800
      6 C4           0.1150     1.4190    -0.5180 ca         1 M9H      -0.120000
      7 C5           1.2890     0.6860    -0.6260 ca         1 M9H      -0.110800
      8 C6           2.5990     1.3890    -0.8900 c3         1 M9H       0.146800
      9 N2           3.6470     0.9990     0.0240 ns         1 M9H      -0.574400
     10 C7           4.6700     0.1890    -0.2960 c          1 M9H       0.668100
     11 C8           5.5750    -0.1760     0.8660 c3         1 M9H       0.077800
     12 N3           6.9150    -0.4570     0.4120 n7         1 M9H      -0.791700
     13 C9           7.7590    -0.9540     1.4780 c3         1 M9H       0.143600
     14 O2           4.8530    -0.2610    -1.4180 o          1 M9H      -0.597600
     15 C10          1.2280    -0.7020    -0.5140 ca         1 M9H      -0.108000
     16 C11          0.0110    -1.3270    -0.2970 ca         1 M9H      -0.129000
     17 C12         -1.1580    -0.5820    -0.1900 ca         1 M9H      -0.108000
     18 C13         -5.7800     0.0820    -0.4900 c3         1 M9H       0.077800
     19 N4          -6.5650    -0.7560     0.3810 n7         1 M9H      -0.791700
     20 C14         -7.7970    -1.1890    -0.2450 c3         1 M9H       0.143600
     21 H1          -3.6590     0.8400    -1.5750 hn         1 M9H       0.313500
     22 H2          -2.2200     2.5880    -0.7010 h1         1 M9H       0.065200
     23 H3          -2.4790     1.9330     0.9000 h1         1 M9H       0.065200
     24 H4           0.1580     2.5010    -0.6040 ha         1 M9H       0.126000
     25 H5           2.9390     1.1800    -1.9040 h1         1 M9H       0.065200
     26 H6           2.4550     2.4690    -0.8210 h1         1 M9H       0.065200
     27 H7           3.5660     1.3170     0.9760 hn         1 M9H       0.313500
     28 H8           5.6040     0.6370     1.5970 h1         1 M9H       0.043950
     29 H9           5.0980    -1.0280     1.3830 h1         1 M9H       0.043950
     30 H10          6.8730    -1.1410    -0.3320 hn         1 M9H       0.376800
     31 H12          7.3680    -1.8490     1.9810 h1         1 M9H       0.030867
     32 H13          8.7460    -1.1930     1.0830 h1         1 M9H       0.030867
     33 H14          7.8880    -0.1830     2.2410 h1         1 M9H       0.030867
     34 H15          2.1270    -1.3000    -0.6050 ha         1 M9H       0.140500
     35 H16         -0.0320    -2.4050    -0.2150 ha         1 M9H       0.134000
     36 H17         -2.1000    -1.0890    -0.0250 ha         1 M9H       0.140500
     37 H18         -6.3400     0.9450    -0.8910 h1         1 M9H       0.043950
     38 H19         -5.4650    -0.4970    -1.3630 h1         1 M9H       0.043950
     39 H20         -6.7800    -0.2440     1.2260 hn         1 M9H       0.376800
     40 H22         -7.5810    -1.8590    -1.0790 h1         1 M9H       0.030867
     41 H23         -8.3970    -1.7450     0.4750 h1         1 M9H       0.030867
     42 H24         -8.4140    -0.3670    -0.6370 h1         1 M9H       0.030867
@<TRIPOS>BOND
     1     1     2 2   
     2     2     3 1   
     3     2    18 1   
     4     3     4 1   
     5     3    21 1   
     6     4     5 1   
     7     4    22 1   
     8     4    23 1   
     9     5     6 ar  
    10     5    17 ar  
    11     6     7 ar  
    12     6    24 1   
    13     7     8 1   
    14     7    15 ar  
    15     8     9 1   
    16     8    25 1   
    17     8    26 1   
    18     9    10 1   
    19     9    27 1   
    20    10    11 1   
    21    10    14 2   
    22    11    12 1   
    23    11    28 1   
    24    11    29 1   
    25    12    13 1   
    26    12    30 1   
    27    13    31 1   
    28    13    32 1   
    29    13    33 1   
    30    15    16 ar  
    31    15    34 1   
    32    16    17 ar  
    33    16    35 1   
    34    17    36 1   
    35    18    19 1   
    36    18    37 1   
    37    18    38 1   
    38    19    20 1   
    39    19    39 1   
    40    20    40 1   
    41    20    41 1   
    42    20    42 1   
@<TRIPOS>SUBSTRUCTURE
     1 M9H         1 TEMP              0 ****  ****    0 ROOT
