@<TRIPOS>MOLECULE
M9I
   36    37     1     0     0
SMALL
abcg2


@<TRIPOS>ATOM
      1 C1         -16.5580   -13.3640    21.1010 c6         1 M9I       0.298700
      2 C2         -16.0080   -12.5820    19.8890 c6         1 M9I       0.140300
      3 C3         -17.1130   -11.7790    19.2160 c6         1 M9I       0.187300
      4 C4         -17.8480   -10.9250    20.2510 c6         1 M9I       0.105300
      5 C5         -18.3540   -11.8340    21.3730 c6         1 M9I       0.134300
      6 C6         -19.0760   -11.0830    22.4730 c3         1 M9I      -0.091100
      7 O2         -15.4380   -13.4430    18.9400 oh         1 M9I      -0.705000
      8 O3         -16.5330   -11.0200    18.1880 oh         1 M9I      -0.624000
      9 O4         -16.9660    -9.9340    20.7140 oh         1 M9I      -0.695000
     10 O5         -17.2690   -12.5250    21.9690 os         1 M9I      -0.430000
     11 O08        -17.1210   -15.6600    22.5960 o          1 M9I      -0.584100
     12 N09        -17.3250   -14.5020    20.6650 ns         1 M9I      -0.533900
     13 C06        -18.2570   -16.7200    20.8040 ca         1 M9I      -0.154600
     14 C01        -19.0300   -17.5480    21.6150 ca         1 M9I      -0.073500
     15 C05        -18.1710   -16.9890    19.4390 ca         1 M9I      -0.073500
     16 C04        -18.8580   -18.0640    18.8930 ca         1 M9I      -0.119500
     17 C03        -19.6430   -18.8730    19.7030 ca         1 M9I      -0.090000
     18 C02        -19.7270   -18.6130    21.0660 ca         1 M9I      -0.119500
     19 H1         -15.7160   -13.7340    21.6900 h2         1 M9I       0.103700
     20 H2         -15.2640   -11.8790    20.2860 h1         1 M9I       0.081700
     21 H3         -17.8590   -12.4760    18.7990 h1         1 M9I       0.030700
     22 H4         -18.7280   -10.4780    19.7630 h1         1 M9I       0.031700
     23 H5         -19.0600   -12.5480    20.9240 h1         1 M9I       0.039700
     24 H6         -19.4780   -11.7740    23.2140 hc         1 M9I       0.047700
     25 H7         -18.4160   -10.3850    22.9910 hc         1 M9I       0.047700
     26 H8         -19.9120   -10.5200    22.0580 hc         1 M9I       0.047700
     27 H9         -14.6540   -13.8490    19.3240 ho         1 M9I       0.512000
     28 H10        -17.2370   -10.5660    17.7130 ho         1 M9I       0.442000
     29 H11        -17.4670    -9.2700    21.1960 ho         1 M9I       0.506000
     30 H12        -17.7480   -14.4890    19.7510 hn         1 M9I       0.321500
     31 H13        -19.0950   -17.3530    22.6770 ha         1 M9I       0.125500
     32 H14        -17.5440   -16.3850    18.7940 ha         1 M9I       0.125500
     33 H15        -18.7760   -18.2710    17.8340 ha         1 M9I       0.117000
     34 H16        -20.1830   -19.7070    19.2760 ha         1 M9I       0.115000
     35 H17        -20.3360   -19.2420    21.7010 ha         1 M9I       0.117000
     36 C07        -17.5160   -15.5900    21.4430 c          1 M9I       0.615700
@<TRIPOS>BOND
     1     1     2 1   
     2     1    10 1   
     3     1    12 1   
     4     1    19 1   
     5     2     3 1   
     6     2     7 1   
     7     2    20 1   
     8     3     4 1   
     9     3     8 1   
    10     3    21 1   
    11     4     5 1   
    12     4     9 1   
    13     4    22 1   
    14     5     6 1   
    15     5    10 1   
    16     5    23 1   
    17     6    24 1   
    18     6    25 1   
    19     6    26 1   
    20     7    27 1   
    21     8    28 1   
    22     9    29 1   
    23    11    36 2   
    24    12    30 1   
    25    12    36 1   
    26    13    14 ar  
    27    13    15 ar  
    28    13    36 1   
    29    14    18 ar  
    30    14    31 1   
    31    15    16 ar  
    32    15    32 1   
    33    16    17 ar  
    34    16    33 1   
    35    17    18 ar  
    36    17    34 1   
    37    18    35 1   
@<TRIPOS>SUBSTRUCTURE
     1 M9I         1 TEMP              0 ****  ****    0 ROOT
