@<TRIPOS>MOLECULE
M9I
   36    37     1     0     0
SMALL
No Charge or Current Charge


@<TRIPOS>ATOM
      1 C1         -16.4120   -13.3930    21.2360 c6         1 M9I       0.298700
      2 C2         -15.7700   -12.6000    20.0450 c6         1 M9I       0.140300
      3 C3         -16.8710   -11.8960    19.1850 c6         1 M9I       0.187300
      4 C4         -17.8050   -11.0290    20.0790 c6         1 M9I       0.105300
      5 C5         -18.3810   -11.9440    21.2090 c6         1 M9I       0.134300
      6 C6         -19.3010   -11.1960    22.2070 c3         1 M9I      -0.091100
      7 O2         -14.9480   -13.4490    19.2070 oh         1 M9I      -0.705000
      8 O3         -16.2640   -11.0650    18.1840 oh         1 M9I      -0.624000
      9 O4         -17.0610    -9.9020    20.5980 oh         1 M9I      -0.695000
     10 O5         -17.3080   -12.5310    21.9800 os         1 M9I      -0.430000
     11 O08        -17.5700   -15.4810    22.8290 o          1 M9I      -0.584100
     12 N09        -17.1450   -14.5830    20.7930 ns         1 M9I      -0.533900
     13 C06        -18.4150   -16.6840    20.9300 ca         1 M9I      -0.154600
     14 C01        -18.9620   -17.7260    21.7150 ca         1 M9I      -0.073500
     15 C05        -18.5760   -16.7450    19.5220 ca         1 M9I      -0.073500
     16 C04        -19.2610   -17.8190    18.9270 ca         1 M9I      -0.119500
     17 C03        -19.7960   -18.8450    19.7200 ca         1 M9I      -0.090000
     18 C02        -19.6460   -18.7970    21.1140 ca         1 M9I      -0.119500
     19 H1         -15.6010   -13.7240    21.9040 h2         1 M9I       0.103700
     20 H2         -15.1450   -11.8130    20.4930 h1         1 M9I       0.081700
     21 H3         -17.4830   -12.6700    18.6980 h1         1 M9I       0.030700
     22 H4         -18.6440   -10.6700    19.4640 h1         1 M9I       0.031700
     23 H5         -18.9780   -12.7470    20.7510 h1         1 M9I       0.039700
     24 H6         -19.7500   -11.8970    22.9200 hc         1 M9I       0.047700
     25 H7         -18.7520   -10.4430    22.7850 hc         1 M9I       0.047700
     26 H8         -20.1210   -10.6900    21.6830 hc         1 M9I       0.047700
     27 H9         -14.7840   -12.9290    18.3840 ho         1 M9I       0.512000
     28 H10        -16.1940   -10.1840    18.6190 ho         1 M9I       0.442000
     29 H11        -17.6480    -9.4290    21.2320 ho         1 M9I       0.506000
     30 H12        -17.2030   -14.7480    19.7990 hn         1 M9I       0.321500
     31 H13        -18.8580   -17.7100    22.7980 ha         1 M9I       0.125500
     32 H14        -18.1800   -15.9690    18.8720 ha         1 M9I       0.125500
     33 H15        -19.3790   -17.8540    17.8460 ha         1 M9I       0.117000
     34 H16        -20.3260   -19.6740    19.2560 ha         1 M9I       0.115000
     35 H17        -20.0610   -19.5910    21.7320 ha         1 M9I       0.117000
     36 C07        -17.6840   -15.5440    21.6130 c          1 M9I       0.615700
@<TRIPOS>BOND
     1     1     2 1   
     2     1    10 1   
     3     1    12 1   
     4     1    19 1   
     5     2     3 1   
     6     2     7 1   
     7     2    20 1   
     8     3     4 1   
     9     3     8 1   
    10     3    21 1   
    11     4     5 1   
    12     4     9 1   
    13     4    22 1   
    14     5     6 1   
    15     5    10 1   
    16     5    23 1   
    17     6    24 1   
    18     6    25 1   
    19     6    26 1   
    20     7    27 1   
    21     8    28 1   
    22     9    29 1   
    23    11    36 2   
    24    12    30 1   
    25    12    36 1   
    26    13    14 ar  
    27    13    15 ar  
    28    13    36 1   
    29    14    18 ar  
    30    14    31 1   
    31    15    16 ar  
    32    15    32 1   
    33    16    17 ar  
    34    16    33 1   
    35    17    18 ar  
    36    17    34 1   
    37    18    35 1   
@<TRIPOS>SUBSTRUCTURE
     1 M9I         1 TEMP              0 ****  ****    0 ROOT
