@<TRIPOS>MOLECULE
M9J
   85    91     1     0     0
SMALL
abcg2


@<TRIPOS>ATOM
      1 C33        -25.6270   -51.8640   -47.6620 c6         1 M9J      -0.082400
      2 C32        -24.2610   -51.7100   -46.9900 c6         1 M9J      -0.072400
      3 C31        -24.2940   -52.1620   -45.5310 c6         1 M9J      -0.075400
      4 C30        -24.8440   -53.5830   -45.4170 c6         1 M9J      -0.072400
      5 C29        -26.2210   -53.6860   -46.0690 c6         1 M9J      -0.082400
      6 C4         -26.2090   -53.2930   -47.5660 c6         1 M9J       0.294500
      7 N          -27.5890   -53.3910   -48.0880 n3         1 M9J      -0.766600
      8 C3         -27.7790   -53.1240   -49.5160 c5         1 M9J       0.178300
      9 C2         -29.2940   -53.1380   -49.6570 c5         1 M9J      -0.085900
     10 C1         -29.7500   -52.3920   -48.3950 c5         1 M9J      -0.085900
     11 C          -28.6560   -52.6880   -47.3480 c5         1 M9J       0.178300
     12 C5         -25.3940   -54.3160   -48.3470 cc         1 M9J      -0.174300
     13 S          -25.6610   -55.9990   -48.0230 ss         1 M9J      -0.015400
     14 C15        -24.5480   -56.4450   -49.2870 cc         1 M9J       0.497900
     15 N2         -24.0280   -55.4170   -49.8970 nd         1 M9J      -0.640000
     16 C6         -24.5010   -54.2160   -49.3910 cd         1 M9J       0.399000
     17 C7         -24.0550   -53.0250   -50.0250 ch         1 M9J      -0.174000
     18 C8         -23.6730   -52.0250   -50.5780 c1         1 M9J      -0.125100
     19 C9         -23.2860   -50.7570   -51.1810 c3         1 M9J       0.246900
     20 N1         -24.0470   -49.6490   -50.5980 n7         1 M9J      -0.859400
     21 C10        -23.7250   -48.3640   -51.2170 c3         1 M9J       0.168800
     22 C11        -24.5710   -47.2540   -50.6350 cy         1 M9J      -0.085700
     23 C14        -24.2670   -45.7990   -51.0730 cy         1 M9J      -0.082400
     24 C13        -24.5120   -45.3460   -49.6110 cy         1 M9J      -0.095400
     25 C12        -24.3330   -46.8190   -49.1660 cy         1 M9J      -0.082400
     26 C16        -24.2410   -57.8410   -49.6000 ca         1 M9J      -0.167500
     27 C28        -25.0430   -58.8770   -49.1250 ca         1 M9J      -0.041000
     28 C27        -24.7230   -60.1970   -49.4420 ca         1 M9J      -0.104800
     29 C19        -23.5810   -60.4640   -50.2490 ca         1 M9J      -0.029200
     30 C18        -22.7710   -59.4320   -50.7290 ca         1 M9J      -0.137000
     31 C17        -23.1100   -58.1340   -50.4000 ca         1 M9J      -0.052000
     32 C26        -25.3160   -61.4650   -49.1340 cc         1 M9J      -0.231200
     33 C25        -24.5430   -62.4180   -49.7400 cd         1 M9J      -0.161100
     34 N3         -23.4970   -61.8250   -50.4190 na         1 M9J      -0.093700
     35 C20        -22.4350   -62.5540   -51.0920 c3         1 M9J       0.044600
     36 C21        -21.4200   -63.1720   -50.1110 c5         1 M9J       0.145500
     37 C24        -20.6000   -62.1270   -49.3530 c5         1 M9J      -0.077400
     38 C23        -19.4690   -61.7640   -50.3340 c5         1 M9J      -0.088400
     39 C22        -19.3490   -62.9860   -51.2740 c5         1 M9J       0.150800
     40 N4         -20.3770   -63.9390   -50.7970 n7         1 M9J      -0.864400
     41 H1         -25.5750   -51.5410   -48.6970 hc         1 M9J       0.047950
     42 H2         -26.3370   -51.2020   -47.1600 hc         1 M9J       0.047950
     43 H3         -23.5150   -52.2970   -47.5300 hc         1 M9J       0.046700
     44 H4         -23.9430   -50.6660   -47.0590 hc         1 M9J       0.046700
     45 H5         -23.2940   -52.1050   -45.0930 hc         1 M9J       0.037200
     46 H6         -24.9340   -51.4840   -44.9550 hc         1 M9J       0.037200
     47 H7         -24.9180   -53.8820   -44.3690 hc         1 M9J       0.046700
     48 H8         -24.1510   -54.2820   -45.8960 hc         1 M9J       0.046700
     49 H9         -26.9000   -53.0070   -45.5500 hc         1 M9J       0.047950
     50 H10        -26.6380   -54.6900   -45.9560 hc         1 M9J       0.047950
     51 H12        -27.2850   -53.8880   -50.1170 h1         1 M9J       0.038200
     52 H13        -27.3820   -52.1460   -49.8260 h1         1 M9J       0.038200
     53 H14        -29.6360   -52.6650   -50.5780 hc         1 M9J       0.047200
     54 H15        -29.6540   -54.1700   -49.6480 hc         1 M9J       0.047200
     55 H16        -29.7910   -51.3200   -48.5950 hc         1 M9J       0.047200
     56 H17        -30.7390   -52.7000   -48.0560 hc         1 M9J       0.047200
     57 H18        -28.3080   -51.7540   -46.8930 h1         1 M9J       0.038200
     58 H19        -29.0270   -53.3210   -46.5400 h1         1 M9J       0.038200
     59 H20        -22.2210   -50.5730   -51.0000 h1         1 M9J       0.049200
     60 H21        -23.4060   -50.8210   -52.2750 h1         1 M9J       0.049200
     61 H22        -25.0380   -49.8370   -50.7200 hn         1 M9J       0.409000
     62 H24        -23.8550   -48.3900   -52.3120 h1         1 M9J       0.032700
     63 H25        -22.6670   -48.1530   -51.0280 h1         1 M9J       0.032700
     64 H26        -25.6300   -47.4800   -50.7930 hc         1 M9J       0.050700
     65 H27        -23.2190   -45.6860   -51.3590 hc         1 M9J       0.050700
     66 H28        -24.8940   -45.3650   -51.8530 hc         1 M9J       0.050700
     67 H29        -23.8290   -44.6070   -49.1930 hc         1 M9J       0.048200
     68 H30        -25.5370   -45.0020   -49.4630 hc         1 M9J       0.048200
     69 H31        -25.0120   -47.2060   -48.4060 hc         1 M9J       0.050700
     70 H32        -23.3050   -47.0280   -48.8590 hc         1 M9J       0.050700
     71 H33        -25.9190   -58.6660   -48.5230 ha         1 M9J       0.119000
     72 H34        -21.8970   -59.6310   -51.3350 ha         1 M9J       0.116000
     73 H35        -22.4990   -57.3150   -50.7520 ha         1 M9J       0.134000
     74 H36        -26.2030   -61.6430   -48.5480 ha         1 M9J       0.207000
     75 H37        -24.6500   -63.4910   -49.7540 h4         1 M9J       0.212000
     76 H38        -21.9390   -61.8740   -51.7830 h1         1 M9J       0.058200
     77 H39        -22.8880   -63.3520   -51.6830 h1         1 M9J       0.058200
     78 H40        -21.9700   -63.8230   -49.4260 h1         1 M9J       0.074700
     79 H41        -21.1910   -61.2650   -49.0470 hc         1 M9J       0.061200
     80 H42        -20.1920   -62.5860   -48.4510 hc         1 M9J       0.061200
     81 H43        -18.5360   -61.5570   -49.8120 hc         1 M9J       0.047200
     82 H44        -19.7260   -60.8720   -50.9060 hc         1 M9J       0.047200
     83 H45        -18.3630   -63.4510   -51.2210 h1         1 M9J       0.038700
     84 H46        -19.5140   -62.6870   -52.3140 h1         1 M9J       0.038700
     85 H47        -20.7520   -64.4980   -51.5540 hn         1 M9J       0.412000
@<TRIPOS>BOND
     1     1     2 1   
     2     1     6 1   
     3     1    41 1   
     4     1    42 1   
     5     2     3 1   
     6     2    43 1   
     7     2    44 1   
     8     3     4 1   
     9     3    45 1   
    10     3    46 1   
    11     4     5 1   
    12     4    47 1   
    13     4    48 1   
    14     5     6 1   
    15     5    49 1   
    16     5    50 1   
    17     6     7 1   
    18     6    12 1   
    19     7     8 1   
    20     7    11 1   
    21     8     9 1   
    22     8    51 1   
    23     8    52 1   
    24     9    10 1   
    25     9    53 1   
    26     9    54 1   
    27    10    11 1   
    28    10    55 1   
    29    10    56 1   
    30    11    57 1   
    31    11    58 1   
    32    12    13 1   
    33    12    16 2   
    34    13    14 1   
    35    14    15 2   
    36    14    26 1   
    37    15    16 1   
    38    16    17 1   
    39    17    18 3   
    40    18    19 1   
    41    19    20 1   
    42    19    59 1   
    43    19    60 1   
    44    20    21 1   
    45    20    61 1   
    46    21    22 1   
    47    21    62 1   
    48    21    63 1   
    49    22    23 1   
    50    22    25 1   
    51    22    64 1   
    52    23    24 1   
    53    23    65 1   
    54    23    66 1   
    55    24    25 1   
    56    24    67 1   
    57    24    68 1   
    58    25    69 1   
    59    25    70 1   
    60    26    27 ar  
    61    26    31 ar  
    62    27    28 ar  
    63    27    71 1   
    64    28    29 ar  
    65    28    32 1   
    66    29    30 ar  
    67    29    34 1   
    68    30    31 ar  
    69    30    72 1   
    70    31    73 1   
    71    32    33 2   
    72    32    74 1   
    73    33    34 1   
    74    33    75 1   
    75    34    35 1   
    76    35    36 1   
    77    35    76 1   
    78    35    77 1   
    79    36    37 1   
    80    36    40 1   
    81    36    78 1   
    82    37    38 1   
    83    37    79 1   
    84    37    80 1   
    85    38    39 1   
    86    38    81 1   
    87    38    82 1   
    88    39    40 1   
    89    39    83 1   
    90    39    84 1   
    91    40    85 1   
@<TRIPOS>SUBSTRUCTURE
     1 M9J         1 TEMP              0 ****  ****    0 ROOT
