@<TRIPOS>MOLECULE
M9J
   85    91     1     0     0
SMALL
No Charge or Current Charge


@<TRIPOS>ATOM
      1 C33        -25.6300   -51.8640   -47.4750 c6         1 M9J      -0.082400
      2 C32        -24.2730   -51.9280   -46.7170 c6         1 M9J      -0.072400
      3 C31        -24.4640   -52.4560   -45.2760 c6         1 M9J      -0.075400
      4 C30        -25.2150   -53.8080   -45.2700 c6         1 M9J      -0.072400
      5 C29        -26.5560   -53.6970   -46.0450 c6         1 M9J      -0.082400
      6 C4         -26.3590   -53.2580   -47.5440 c6         1 M9J       0.294500
      7 N          -27.7010   -53.1700   -48.2200 n3         1 M9J      -0.766600
      8 C3         -27.7060   -52.8250   -49.6630 c5         1 M9J       0.178300
      9 C2         -29.2220   -52.8040   -49.9950 c5         1 M9J      -0.085900
     10 C1         -29.9080   -52.5010   -48.6270 c5         1 M9J      -0.085900
     11 C          -28.7200   -52.2440   -47.6670 c5         1 M9J       0.178300
     12 C5         -25.5740   -54.3670   -48.2840 cc         1 M9J      -0.174300
     13 S          -25.9030   -56.0600   -47.9730 ss         1 M9J      -0.015400
     14 C15        -24.6860   -56.4870   -49.1390 cc         1 M9J       0.497900
     15 N2         -24.1210   -55.4710   -49.7670 nd         1 M9J      -0.640000
     16 C6         -24.6300   -54.2660   -49.3090 cd         1 M9J       0.399000
     17 C7         -24.1370   -53.0960   -49.9500 ch         1 M9J      -0.174000
     18 C8         -23.7040   -52.1070   -50.5100 c1         1 M9J      -0.125100
     19 C9         -23.1930   -50.8970   -51.1610 c3         1 M9J       0.246900
     20 N1         -23.9450   -49.7240   -50.6890 n7         1 M9J      -0.859400
     21 C10        -23.5370   -48.4360   -51.2730 c3         1 M9J       0.168800
     22 C11        -24.3870   -47.2830   -50.7160 cy         1 M9J      -0.085700
     23 C14        -23.9410   -45.8120   -51.0260 cy         1 M9J      -0.082400
     24 C13        -24.6230   -45.4400   -49.6680 cy         1 M9J      -0.095400
     25 C12        -24.2190   -46.8800   -49.2100 cy         1 M9J      -0.082400
     26 C16        -24.3230   -57.8900   -49.4130 ca         1 M9J      -0.167500
     27 C28        -24.9480   -58.9570   -48.7160 ca         1 M9J      -0.041000
     28 C27        -24.5630   -60.2690   -49.0160 ca         1 M9J      -0.104800
     29 C19        -23.6100   -60.5620   -49.9510 ca         1 M9J      -0.029200
     30 C18        -22.9710   -59.5370   -50.6630 ca         1 M9J      -0.137000
     31 C17        -23.3320   -58.2010   -50.3880 ca         1 M9J      -0.052000
     32 C26        -25.0260   -61.5100   -48.4700 cc         1 M9J      -0.231200
     33 C25        -24.3210   -62.5250   -49.1050 cd         1 M9J      -0.161100
     34 N3         -23.4310   -61.9390   -50.0340 na         1 M9J      -0.093700
     35 C20        -22.4460   -62.6180   -50.8970 c3         1 M9J       0.044600
     36 C21        -21.1610   -63.0890   -50.1560 c5         1 M9J       0.145500
     37 C24        -20.2360   -61.9580   -49.6390 c5         1 M9J      -0.077400
     38 C23        -19.4860   -61.5210   -50.9310 c5         1 M9J      -0.088400
     39 C22        -19.5080   -62.7970   -51.8260 c5         1 M9J       0.150800
     40 N4         -20.2230   -63.8280   -51.0340 n7         1 M9J      -0.864400
     41 H1         -25.4950   -51.4120   -48.4620 hc         1 M9J       0.047950
     42 H2         -26.2680   -51.1490   -46.9400 hc         1 M9J       0.047950
     43 H3         -23.5600   -52.5710   -47.2480 hc         1 M9J       0.046700
     44 H4         -23.8200   -50.9280   -46.6870 hc         1 M9J       0.046700
     45 H5         -23.4870   -52.5670   -44.7850 hc         1 M9J       0.037200
     46 H6         -25.0270   -51.7190   -44.6860 hc         1 M9J       0.037200
     47 H7         -25.4110   -54.1160   -44.2340 hc         1 M9J       0.046700
     48 H8         -24.5790   -54.5900   -45.7070 hc         1 M9J       0.046700
     49 H9         -27.1760   -52.9620   -45.5170 hc         1 M9J       0.047950
     50 H10        -27.1150   -54.6390   -45.9750 hc         1 M9J       0.047950
     51 H12        -27.1720   -53.5580   -50.2820 h1         1 M9J       0.038200
     52 H13        -27.2570   -51.8380   -49.8430 h1         1 M9J       0.038200
     53 H14        -29.4540   -52.0490   -50.7540 hc         1 M9J       0.047200
     54 H15        -29.5520   -53.7710   -50.3900 hc         1 M9J       0.047200
     55 H16        -30.5860   -51.6410   -48.6760 hc         1 M9J       0.047200
     56 H17        -30.4990   -53.3600   -48.2910 hc         1 M9J       0.047200
     57 H18        -28.3940   -51.1960   -47.7210 h1         1 M9J       0.038200
     58 H19        -28.9970   -52.4680   -46.6280 h1         1 M9J       0.038200
     59 H20        -22.1240   -50.7960   -50.9290 h1         1 M9J       0.049200
     60 H21        -23.2920   -51.0150   -52.2500 h1         1 M9J       0.049200
     61 H22        -24.9330   -49.8790   -50.9140 hn         1 M9J       0.409000
     62 H24        -23.6540   -48.4490   -52.3660 h1         1 M9J       0.032700
     63 H25        -22.4820   -48.2270   -51.0480 h1         1 M9J       0.032700
     64 H26        -25.4310   -47.4760   -50.9940 hc         1 M9J       0.050700
     65 H27        -22.8560   -45.6560   -51.0490 hc         1 M9J       0.050700
     66 H28        -24.3780   -45.3580   -51.9230 hc         1 M9J       0.050700
     67 H29        -24.1680   -44.6130   -49.1120 hc         1 M9J       0.048200
     68 H30        -25.7040   -45.2680   -49.7320 hc         1 M9J       0.048200
     69 H31        -24.8990   -47.3690   -48.5050 hc         1 M9J       0.050700
     70 H32        -23.1950   -46.9660   -48.8240 hc         1 M9J       0.050700
     71 H33        -25.7120   -58.7860   -47.9610 ha         1 M9J       0.119000
     72 H34        -22.2150   -59.7530   -51.4120 ha         1 M9J       0.116000
     73 H35        -22.8350   -57.4050   -50.9410 ha         1 M9J       0.134000
     74 H36        -25.7840   -61.6490   -47.7010 ha         1 M9J       0.207000
     75 H37        -24.3810   -63.6010   -48.9660 h4         1 M9J       0.212000
     76 H38        -22.1820   -61.9600   -51.7320 h1         1 M9J       0.058200
     77 H39        -22.9390   -63.4990   -51.3260 h1         1 M9J       0.058200
     78 H40        -21.4880   -63.7280   -49.3220 h1         1 M9J       0.074700
     79 H41        -20.7840   -61.1350   -49.1670 hc         1 M9J       0.061200
     80 H42        -19.5340   -62.3450   -48.8920 hc         1 M9J       0.061200
     81 H43        -18.4650   -61.1880   -50.7150 hc         1 M9J       0.047200
     82 H44        -19.9930   -60.6880   -51.4310 hc         1 M9J       0.047200
     83 H45        -18.4960   -63.1350   -52.0920 h1         1 M9J       0.038700
     84 H46        -20.0450   -62.5920   -52.7630 h1         1 M9J       0.038700
     85 H47        -20.7200   -64.4870   -51.6490 hn         1 M9J       0.412000
@<TRIPOS>BOND
     1     1     2 1   
     2     1     6 1   
     3     1    41 1   
     4     1    42 1   
     5     2     3 1   
     6     2    43 1   
     7     2    44 1   
     8     3     4 1   
     9     3    45 1   
    10     3    46 1   
    11     4     5 1   
    12     4    47 1   
    13     4    48 1   
    14     5     6 1   
    15     5    49 1   
    16     5    50 1   
    17     6     7 1   
    18     6    12 1   
    19     7     8 1   
    20     7    11 1   
    21     8     9 1   
    22     8    51 1   
    23     8    52 1   
    24     9    10 1   
    25     9    53 1   
    26     9    54 1   
    27    10    11 1   
    28    10    55 1   
    29    10    56 1   
    30    11    57 1   
    31    11    58 1   
    32    12    13 1   
    33    12    16 2   
    34    13    14 1   
    35    14    15 2   
    36    14    26 1   
    37    15    16 1   
    38    16    17 1   
    39    17    18 3   
    40    18    19 1   
    41    19    20 1   
    42    19    59 1   
    43    19    60 1   
    44    20    21 1   
    45    20    61 1   
    46    21    22 1   
    47    21    62 1   
    48    21    63 1   
    49    22    23 1   
    50    22    25 1   
    51    22    64 1   
    52    23    24 1   
    53    23    65 1   
    54    23    66 1   
    55    24    25 1   
    56    24    67 1   
    57    24    68 1   
    58    25    69 1   
    59    25    70 1   
    60    26    27 ar  
    61    26    31 ar  
    62    27    28 ar  
    63    27    71 1   
    64    28    29 ar  
    65    28    32 1   
    66    29    30 ar  
    67    29    34 1   
    68    30    31 ar  
    69    30    72 1   
    70    31    73 1   
    71    32    33 2   
    72    32    74 1   
    73    33    34 1   
    74    33    75 1   
    75    34    35 1   
    76    35    36 1   
    77    35    76 1   
    78    35    77 1   
    79    36    37 1   
    80    36    40 1   
    81    36    78 1   
    82    37    38 1   
    83    37    79 1   
    84    37    80 1   
    85    38    39 1   
    86    38    81 1   
    87    38    82 1   
    88    39    40 1   
    89    39    83 1   
    90    39    84 1   
    91    40    85 1   
@<TRIPOS>SUBSTRUCTURE
     1 M9J         1 TEMP              0 ****  ****    0 ROOT
