@<TRIPOS>MOLECULE
M9K
   26    28     1     0     0
SMALL
abcg2


@<TRIPOS>ATOM
      1 C10         -0.6090    -7.7730     7.4510 cx         1 M9K      -0.114400
      2 C02          7.8030    -3.3330     5.4290 c          1 M9K       0.727000
      3 C03          6.7590    -4.3520     5.9340 c3         1 M9K      -0.072400
      4 C05          4.1200    -5.2410     5.8960 ca         1 M9K       0.249300
      5 C06          2.7470    -5.2440     5.6070 ca         1 M9K      -0.289000
      6 C07          1.9520    -6.2880     6.1110 ca         1 M9K       0.143800
      7 C08          0.5600    -6.1750     5.7370 cc         1 M9K      -0.143000
      8 C09         -0.5320    -7.0960     6.0980 cx         1 M9K      -0.075500
      9 C11         -0.3260    -8.5910     6.2290 cx         1 M9K      -0.114400
     10 C12          0.3890    -5.0530     4.9780 cd         1 M9K       0.103600
     11 C16          3.7920    -7.1730     7.0840 ca         1 M9K       0.130900
     12 N15          2.4930    -7.2690     6.8640 nb         1 M9K      -0.200000
     13 N17          4.6290    -6.2210     6.6440 nb         1 M9K      -0.200000
     14 O01          8.9560    -3.5000     5.8890 o          1 M9K      -0.710500
     15 O18          7.4200    -2.4530     4.6220 o          1 M9K      -0.710500
     16 S14          1.8260    -4.1110     4.6780 ss         1 M9K       0.169400
     17 CL          -1.0900    -4.4930     4.3030 cl         1 M9K      -0.161000
     18 H1           0.2110    -7.6040     8.1340 hc         1 M9K       0.075200
     19 H2          -1.5880    -7.8370     7.9040 hc         1 M9K       0.075200
     20 H3           7.0430    -5.3570     5.6270 h1         1 M9K       0.062700
     21 H4           6.7120    -4.3300     7.0210 h1         1 M9K       0.062700
     22 H5          -1.4860    -6.8040     5.6810 hc         1 M9K       0.077700
     23 H6          -1.1090    -9.2240     5.8350 hc         1 M9K       0.075200
     24 H7           0.6810    -8.9630     6.1070 hc         1 M9K       0.075200
     25 H8           4.2440    -7.9520     7.6890 h5         1 M9K       0.038100
     26 S04          5.1190    -3.9560     5.2540 ss         1 M9K      -0.276300
@<TRIPOS>BOND
     1     1     8 1   
     2     1     9 1   
     3     1    18 1   
     4     1    19 1   
     5     2     3 1   
     6     2    14 1   
     7     2    15 1   
     8     3    20 1   
     9     3    21 1   
    10     3    26 1   
    11     4     5 ar  
    12     4    13 ar  
    13     4    26 1   
    14     5     6 ar  
    15     5    16 1   
    16     6     7 1   
    17     6    12 ar  
    18     7     8 1   
    19     7    10 2   
    20     8     9 1   
    21     8    22 1   
    22     9    23 1   
    23     9    24 1   
    24    10    16 1   
    25    10    17 1   
    26    11    12 ar  
    27    11    13 ar  
    28    11    25 1   
@<TRIPOS>SUBSTRUCTURE
     1 M9K         1 TEMP              0 ****  ****    0 ROOT
