@<TRIPOS>MOLECULE
M9K
   26    28     1     0     0
SMALL
No Charge or Current Charge


@<TRIPOS>ATOM
      1 C10         -0.5980    -7.8490     7.4650 cx         1 M9K      -0.114400
      2 C02          7.8980    -3.3140     5.4550 c          1 M9K       0.727000
      3 C03          6.8350    -4.3510     5.8640 c3         1 M9K      -0.072400
      4 C05          4.0860    -5.2300     5.8960 ca         1 M9K       0.249300
      5 C06          2.7030    -5.2250     5.6570 ca         1 M9K      -0.289000
      6 C07          1.9230    -6.2700     6.1170 ca         1 M9K       0.143800
      7 C08          0.4980    -6.1380     5.7990 cc         1 M9K      -0.143000
      8 C09         -0.5930    -7.0940     6.1560 cx         1 M9K      -0.075500
      9 C11         -0.3750    -8.5900     6.1620 cx         1 M9K      -0.114400
     10 C12          0.3180    -4.9480     5.0920 cd         1 M9K       0.103600
     11 C16          3.8140    -7.2350     6.9890 ca         1 M9K       0.130900
     12 N15          2.4780    -7.2960     6.7950 nb         1 M9K      -0.200000
     13 N17          4.6470    -6.2540     6.5730 nb         1 M9K      -0.200000
     14 O01          8.1450    -2.4010     6.2330 o          1 M9K      -0.710500
     15 O18          8.4600    -3.4550     4.3780 o          1 M9K      -0.710500
     16 S14          1.7920    -3.9850     4.7960 ss         1 M9K       0.169400
     17 Cl          -1.2130    -4.3700     4.5010 cl         1 M9K      -0.161000
     18 H1           0.2440    -7.7310     8.1420 hc         1 M9K       0.075200
     19 H2          -1.5550    -7.9830     7.9630 hc         1 M9K       0.075200
     20 H3           7.1090    -5.3170     5.4250 h1         1 M9K       0.062700
     21 H4           6.8490    -4.4480     6.9560 h1         1 M9K       0.062700
     22 H5          -1.5680    -6.7680     5.8040 hc         1 M9K       0.077700
     23 H6          -1.1840    -9.2160     5.7940 hc         1 M9K       0.075200
     24 H7           0.6180    -8.9760     5.9500 hc         1 M9K       0.075200
     25 H8           4.2670    -8.0610     7.5350 h5         1 M9K       0.038100
     26 S04          5.1190    -3.8870     5.3090 ss         1 M9K      -0.276300
@<TRIPOS>BOND
     1     1     8 1   
     2     1     9 1   
     3     1    18 1   
     4     1    19 1   
     5     2     3 1   
     6     2    14 1   
     7     2    15 1   
     8     3    20 1   
     9     3    21 1   
    10     3    26 1   
    11     4     5 ar  
    12     4    13 ar  
    13     4    26 1   
    14     5     6 ar  
    15     5    16 1   
    16     6     7 1   
    17     6    12 ar  
    18     7     8 1   
    19     7    10 2   
    20     8     9 1   
    21     8    22 1   
    22     9    23 1   
    23     9    24 1   
    24    10    16 1   
    25    10    17 1   
    26    11    12 ar  
    27    11    13 ar  
    28    11    25 1   
@<TRIPOS>SUBSTRUCTURE
     1 M9K         1 TEMP              0 ****  ****    0 ROOT
