@<TRIPOS>MOLECULE
M9L
   24    24     1     0     0
SMALL
abcg2


@<TRIPOS>ATOM
      1 N3          48.8600   -62.3690    21.8820 ns         1 M9L      -0.469900
      2 C4          49.9530   -62.1860    20.9480 c3         1 M9L      -0.005000
      3 C5          50.0530   -60.7280    20.5750 ca         1 M9L      -0.058300
      4 C6          51.1440   -59.9560    20.9540 ca         1 M9L      -0.068500
      5 C7          51.2420   -58.6150    20.6070 ca         1 M9L      -0.184000
      6 C8          50.2290   -58.0130    19.8670 ca         1 M9L       0.104100
      7 C10         49.1250   -58.7720    19.4820 ca         1 M9L      -0.184000
      8 O1          49.5100   -64.4700    22.4500 o          1 M9L      -0.642100
      9 C2          48.6560   -63.5910    22.4450 c          1 M9L       0.634100
     10 O9          50.2630   -56.7160    19.4940 oh         1 M9L      -0.552100
     11 C11         49.0480   -60.1090    19.8310 ca         1 M9L      -0.068500
     12 C12         49.8220   -63.0370    19.6500 c          1 M9L       0.720000
     13 O13         50.8850   -63.2010    19.0230 o          1 M9L      -0.714500
     14 O14         48.6840   -63.4330    19.3440 o          1 M9L      -0.714500
     15 N15         47.4250   -63.7690    23.0120 nt         1 M9L      -0.601000
     16 H1          48.0460   -61.7940    21.7310 hn         1 M9L       0.282500
     17 H2          50.8810   -62.4700    21.4480 h1         1 M9L       0.069700
     18 H3          51.9400   -60.4050    21.5350 ha         1 M9L       0.122500
     19 H4          52.1080   -58.0410    20.9160 ha         1 M9L       0.101000
     20 H5          48.3340   -58.3120    18.9020 ha         1 M9L       0.101000
     21 H6          51.0680   -56.2940    19.8160 ho         1 M9L       0.449000
     22 H7          48.1890   -60.6840    19.5040 ha         1 M9L       0.122500
     23 H9          47.3440   -64.5310    23.6660 hn         1 M9L       0.278000
     24 H10         46.8580   -62.9680    23.2370 hn         1 M9L       0.278000
@<TRIPOS>BOND
     1     1     2 1   
     2     1     9 1   
     3     1    16 1   
     4     2     3 1   
     5     2    12 1   
     6     2    17 1   
     7     3     4 ar  
     8     3    11 ar  
     9     4     5 ar  
    10     4    18 1   
    11     5     6 ar  
    12     5    19 1   
    13     6     7 ar  
    14     6    10 1   
    15     7    11 ar  
    16     7    20 1   
    17     8     9 2   
    18     9    15 1   
    19    10    21 1   
    20    11    22 1   
    21    12    13 1   
    22    12    14 1   
    23    15    23 1   
    24    15    24 1   
@<TRIPOS>SUBSTRUCTURE
     1 M9L         1 TEMP              0 ****  ****    0 ROOT
