@<TRIPOS>MOLECULE
M9L
   24    24     1     0     0
SMALL
No Charge or Current Charge


@<TRIPOS>ATOM
      1 N3          48.7700   -62.5040    21.7150 ns         1 M9L      -0.469900
      2 C4          49.9330   -62.2160    20.8430 c3         1 M9L      -0.005000
      3 C5          50.0190   -60.7270    20.5080 ca         1 M9L      -0.058300
      4 C6          51.1490   -59.9790    20.8980 ca         1 M9L      -0.068500
      5 C7          51.2330   -58.6080    20.5960 ca         1 M9L      -0.184000
      6 C8          50.1880   -57.9770    19.9030 ca         1 M9L       0.104100
      7 C10         49.0610   -58.7130    19.5120 ca         1 M9L      -0.184000
      8 O1          49.5340   -64.4400    22.6640 o          1 M9L      -0.642100
      9 C2          48.6730   -63.5900    22.5380 c          1 M9L       0.634100
     10 O9          50.2660   -56.6500    19.6090 oh         1 M9L      -0.552100
     11 C11         48.9740   -60.0840    19.8130 ca         1 M9L      -0.068500
     12 C12         49.9350   -63.1030    19.5540 c          1 M9L       0.720000
     13 O13         51.0080   -63.5510    19.1690 o          1 M9L      -0.714500
     14 O14         48.8790   -63.3010    18.9640 o          1 M9L      -0.714500
     15 N15         47.5170   -63.6420    23.2180 nt         1 M9L      -0.601000
     16 H1          47.9800   -61.8740    21.6890 hn         1 M9L       0.282500
     17 H2          50.8360   -62.4930    21.4030 h1         1 M9L       0.069700
     18 H3          51.9630   -60.4600    21.4370 ha         1 M9L       0.122500
     19 H4          52.1110   -58.0440    20.9030 ha         1 M9L       0.101000
     20 H5          48.2510   -58.2240    18.9760 ha         1 M9L       0.101000
     21 H6          51.1160   -56.3060    19.9560 ho         1 M9L       0.449000
     22 H7          48.0950   -60.6460    19.5050 ha         1 M9L       0.122500
     23 H9          47.3550   -64.4090    23.8520 hn         1 M9L       0.278000
     24 H10         46.8210   -62.9230    23.0940 hn         1 M9L       0.278000
@<TRIPOS>BOND
     1     1     2 1   
     2     1     9 1   
     3     1    16 1   
     4     2     3 1   
     5     2    12 1   
     6     2    17 1   
     7     3     4 ar  
     8     3    11 ar  
     9     4     5 ar  
    10     4    18 1   
    11     5     6 ar  
    12     5    19 1   
    13     6     7 ar  
    14     6    10 1   
    15     7    11 ar  
    16     7    20 1   
    17     8     9 2   
    18     9    15 1   
    19    10    21 1   
    20    11    22 1   
    21    12    13 1   
    22    12    14 1   
    23    15    23 1   
    24    15    24 1   
@<TRIPOS>SUBSTRUCTURE
     1 M9L         1 TEMP              0 ****  ****    0 ROOT
