@<TRIPOS>MOLECULE
M9M
   60    63     1     0     0
SMALL
No Charge or Current Charge


@<TRIPOS>ATOM
      1 CAL         -6.3390    -2.0690    -0.0610 c6         1 M9M      -0.108900
      2 CAN         -7.8790    -2.0960     0.1240 c6         1 M9M       0.165300
      3 NBB         -8.5500    -0.9750    -0.5930 n3         1 M9M      -0.715600
      4 CAB         -8.5710    -1.1330    -2.0680 c3         1 M9M       0.155100
      5 CAO         -8.0220     0.3410    -0.1370 c6         1 M9M       0.165300
      6 CAM         -6.4850     0.4560    -0.3270 c6         1 M9M      -0.108900
      7 CBA         -5.7380    -0.7070     0.3860 c6         1 M9M      -0.057700
      8 CAK         -4.1960    -0.6750     0.1550 c3         1 M9M      -0.070400
      9 CAI         -3.4680     0.5770     0.7000 c3         1 M9M      -0.075400
     10 CAH         -1.9350     0.5050     0.5300 c3         1 M9M      -0.074400
     11 CAJ         -1.2040     1.7530     1.0700 c3         1 M9M      -0.030100
     12 CAW          0.3040     1.6530     0.8890 ca         1 M9M      -0.069300
     13 CAG          0.9130     2.1330    -0.2840 ca         1 M9M      -0.104000
     14 CAD          1.1070     1.0980     1.9010 ca         1 M9M      -0.102000
     15 CAE          2.4990     0.9910     1.7340 ca         1 M9M      -0.112000
     16 CAZ          3.1100     1.4050     0.5290 ca         1 M9M      -0.086000
     17 CAY          2.3040     2.0450    -0.4470 ca         1 M9M       0.079100
     18 OAS          2.8730     2.5810    -1.5830 os         1 M9M      -0.326100
     19 CAP          4.2400     3.0360    -1.4680 c6         1 M9M       0.076600
     20 CAU          5.1220     1.9730    -0.7980 c          1 M9M       0.542000
     21 OAC          6.2140     1.6520    -1.2570 o          1 M9M      -0.531000
     22 NBC          4.5460     1.3570     0.3370 n          1 M9M      -0.213400
     23 CAQ          5.3670     0.3960     1.1260 c3         1 M9M       0.057700
     24 CAX          4.9820    -1.0410     0.8760 cc         1 M9M       0.254300
     25 CAF          4.8630    -1.5910    -0.4130 cc         1 M9M      -0.230000
     26 CAV          4.5020    -2.8800    -0.2130 cd         1 M9M       0.183300
     27 CAA          4.2180    -3.9820    -1.1920 c3         1 M9M      -0.135400
     28 OAT          4.4060    -3.1270     1.1310 os         1 M9M      -0.072700
     29 NAR          4.7250    -1.9110     1.8400 nd         1 M9M      -0.365300
     30 HAL1        -5.8920    -2.8840     0.5240 hc         1 M9M       0.042950
     31 HAL2        -6.0830    -2.2690    -1.1100 hc         1 M9M       0.042950
     32 HAN1        -8.2700    -3.0650    -0.2230 h1         1 M9M       0.049700
     33 HAN2        -8.1030    -2.0350     1.2000 h1         1 M9M       0.049700
     34 HBA         -5.8930    -0.6060     1.4700 hc         1 M9M       0.045700
     35 HAB1        -9.0420    -2.0860    -2.3460 h1         1 M9M       0.028367
     36 HAB2        -9.1490    -0.3240    -2.5330 h1         1 M9M       0.028367
     37 HAB3        -7.5590    -1.1170    -2.4930 h1         1 M9M       0.028367
     38 HAO1        -8.5170     1.1640    -0.6750 h1         1 M9M       0.049700
     39 HAO2        -8.2520     0.4830     0.9300 h1         1 M9M       0.049700
     40 HAM1        -6.2370     0.4660    -1.3970 hc         1 M9M       0.042950
     41 HAM2        -6.1560     1.4230     0.0750 hc         1 M9M       0.042950
     42 HAK1        -3.7470    -1.5580     0.6260 hc         1 M9M       0.039200
     43 HAK2        -3.9830    -0.7630    -0.9180 hc         1 M9M       0.039200
     44 HAI1        -3.8360     1.4710     0.1840 hc         1 M9M       0.038200
     45 HAI2        -3.7080     0.6980     1.7640 hc         1 M9M       0.038200
     46 HAH1        -1.5540    -0.3840     1.0490 hc         1 M9M       0.043200
     47 HAH2        -1.6940     0.3810    -0.5330 hc         1 M9M       0.043200
     48 HAJ1        -1.5870     2.6440     0.5570 hc         1 M9M       0.048200
     49 HAJ2        -1.4490     1.8830     2.1310 hc         1 M9M       0.048200
     50 HAG          0.3110     2.5950    -1.0630 ha         1 M9M       0.130000
     51 HAD          0.6510     0.7440     2.8240 ha         1 M9M       0.120000
     52 HAE          3.0830     0.5630     2.5440 ha         1 M9M       0.130000
     53 HAP1         4.6460     3.2660    -2.4610 h1         1 M9M       0.085200
     54 HAP2         4.2730     3.9360    -0.8390 h1         1 M9M       0.085200
     55 HAQ1         6.4320     0.5160     0.8910 h1         1 M9M       0.086200
     56 HAQ2         5.2610     0.6250     2.1930 h1         1 M9M       0.086200
     57 HAF          5.0250    -1.0790    -1.3540 ha         1 M9M       0.160000
     58 HAA1         4.9050    -4.8230    -1.0420 hc         1 M9M       0.062700
     59 HAA2         3.1940    -4.3540    -1.0730 hc         1 M9M       0.062700
     60 HAA3         4.3330    -3.6310    -2.2240 hc         1 M9M       0.062700
@<TRIPOS>BOND
     1     1     2 1   
     2     1     7 1   
     3     1    30 1   
     4     1    31 1   
     5     2     3 1   
     6     2    32 1   
     7     2    33 1   
     8     3     4 1   
     9     3     5 1   
    10     4    35 1   
    11     4    36 1   
    12     4    37 1   
    13     5     6 1   
    14     5    38 1   
    15     5    39 1   
    16     6     7 1   
    17     6    40 1   
    18     6    41 1   
    19     7     8 1   
    20     7    34 1   
    21     8     9 1   
    22     8    42 1   
    23     8    43 1   
    24     9    10 1   
    25     9    44 1   
    26     9    45 1   
    27    10    11 1   
    28    10    46 1   
    29    10    47 1   
    30    11    12 1   
    31    11    48 1   
    32    11    49 1   
    33    12    13 ar  
    34    12    14 ar  
    35    13    17 ar  
    36    13    50 1   
    37    14    15 ar  
    38    14    51 1   
    39    15    16 ar  
    40    15    52 1   
    41    16    17 ar  
    42    16    22 1   
    43    17    18 1   
    44    18    19 1   
    45    19    20 1   
    46    19    53 1   
    47    19    54 1   
    48    20    21 2   
    49    20    22 1   
    50    22    23 1   
    51    23    24 1   
    52    23    55 1   
    53    23    56 1   
    54    24    25 1   
    55    24    29 2   
    56    25    26 2   
    57    25    57 1   
    58    26    27 1   
    59    26    28 1   
    60    27    58 1   
    61    27    59 1   
    62    27    60 1   
    63    28    29 1   
@<TRIPOS>SUBSTRUCTURE
     1 M9M         1 TEMP              0 ****  ****    0 ROOT
