@<TRIPOS>MOLECULE
M9M
   60    63     1     0     0
SMALL
abcg2


@<TRIPOS>ATOM
      1 CAL         -6.2180    -2.0450    -0.2920 c6         1 M9M      -0.108900
      2 CAN         -7.7210    -2.1080    -0.0160 c6         1 M9M       0.165300
      3 NBB         -8.4590    -0.9450    -0.4800 n3         1 M9M      -0.715600
      4 CAB         -8.6290    -0.9090    -1.9170 c3         1 M9M       0.155100
      5 CAO         -7.8830     0.2740     0.0620 c6         1 M9M       0.165300
      6 CAM         -6.3880     0.4420    -0.2160 c6         1 M9M      -0.108900
      7 CBA         -5.6030    -0.7700     0.2860 c6         1 M9M      -0.057700
      8 CAK         -4.1090    -0.6880    -0.0200 c3         1 M9M      -0.070400
      9 CAI         -3.3950     0.4920     0.6290 c3         1 M9M      -0.075400
     10 CAH         -1.8860     0.4600     0.4170 c3         1 M9M      -0.074400
     11 CAJ         -1.1850     1.6690     1.0390 c3         1 M9M      -0.030100
     12 CAW          0.3050     1.6230     0.8620 ca         1 M9M      -0.069300
     13 CAG          0.8960     2.0900    -0.3090 ca         1 M9M      -0.104000
     14 CAD          1.1300     1.0860     1.8450 ca         1 M9M      -0.102000
     15 CAE          2.5050     1.0060     1.6700 ca         1 M9M      -0.112000
     16 CAZ          3.0890     1.4620     0.4950 ca         1 M9M      -0.086000
     17 CAY          2.2650     2.0060    -0.4900 ca         1 M9M       0.079100
     18 OAS          2.8160     2.4440    -1.6480 os         1 M9M      -0.326100
     19 CAP          4.0900     3.0270    -1.4780 c6         1 M9M       0.076600
     20 CAU          5.0460     2.1180    -0.7370 c          1 M9M       0.542000
     21 OAC          6.2350     2.1070    -0.9870 o          1 M9M      -0.531000
     22 NBC          4.4700     1.3630     0.2380 n          1 M9M      -0.213400
     23 CAQ          5.2850     0.4610     1.0320 c3         1 M9M       0.057700
     24 CAX          4.8950    -0.9620     0.8050 cc         1 M9M       0.254300
     25 CAF          4.7140    -1.6290    -0.4310 cc         1 M9M      -0.230000
     26 CAV          4.3980    -2.8960    -0.0690 cd         1 M9M       0.183300
     27 CAA          4.0840    -4.1200    -0.8390 c3         1 M9M      -0.135400
     28 OAT          4.3910    -2.9770     1.2670 os         1 M9M      -0.072700
     29 NAR          4.6970    -1.7650     1.8080 nd         1 M9M      -0.365300
     30 HAL1        -5.7330    -2.9260     0.1380 hc         1 M9M       0.042950
     31 HAL2        -6.0320    -2.0860    -1.3720 hc         1 M9M       0.042950
     32 HAN1        -8.1540    -3.0040    -0.4680 h1         1 M9M       0.049700
     33 HAN2        -7.8750    -2.1980     1.0660 h1         1 M9M       0.049700
     34 HBA         -5.7210    -0.8130     1.3790 hc         1 M9M       0.045700
     35 HAB1        -9.1230    -1.8230    -2.2500 h1         1 M9M       0.028367
     36 HAB2        -9.2730    -0.0710    -2.1890 h1         1 M9M       0.028367
     37 HAB3        -7.7020    -0.8100    -2.4990 h1         1 M9M       0.028367
     38 HAO1        -8.4420     1.1300    -0.3250 h1         1 M9M       0.049700
     39 HAO2        -8.0370     0.2670     1.1480 h1         1 M9M       0.049700
     40 HAM1        -6.2110     0.5710    -1.2900 hc         1 M9M       0.042950
     41 HAM2        -6.0430     1.3600     0.2660 hc         1 M9M       0.042950
     42 HAK1        -3.6340    -1.6170     0.3140 hc         1 M9M       0.039200
     43 HAK2        -3.9650    -0.6480    -1.1060 hc         1 M9M       0.039200
     44 HAI1        -3.7880     1.4340     0.2370 hc         1 M9M       0.038200
     45 HAI2        -3.6070     0.4980     1.7040 hc         1 M9M       0.038200
     46 HAH1        -1.4720    -0.4590     0.8430 hc         1 M9M       0.043200
     47 HAH2        -1.6650     0.4280    -0.6550 hc         1 M9M       0.043200
     48 HAJ1        -1.5850     2.5820     0.5900 hc         1 M9M       0.048200
     49 HAJ2        -1.4260     1.7160     2.1050 hc         1 M9M       0.048200
     50 HAG          0.2920     2.5250    -1.0960 ha         1 M9M       0.130000
     51 HAD          0.6990     0.7200     2.7680 ha         1 M9M       0.120000
     52 HAE          3.1040     0.5760     2.4600 ha         1 M9M       0.130000
     53 HAP1         4.4920     3.2290    -2.4680 h1         1 M9M       0.085200
     54 HAP2         4.0180     3.9790    -0.9350 h1         1 M9M       0.085200
     55 HAQ1         6.3220     0.6070     0.7380 h1         1 M9M       0.086200
     56 HAQ2         5.2180     0.7110     2.0920 h1         1 M9M       0.086200
     57 HAF          4.8100    -1.2330    -1.4280 ha         1 M9M       0.160000
     58 HAA1         4.7810    -4.9250    -0.6020 hc         1 M9M       0.062700
     59 HAA2         3.0770    -4.4770    -0.6220 hc         1 M9M       0.062700
     60 HAA3         4.1500    -3.9130    -1.9040 hc         1 M9M       0.062700
@<TRIPOS>BOND
     1     1     2 1   
     2     1     7 1   
     3     1    30 1   
     4     1    31 1   
     5     2     3 1   
     6     2    32 1   
     7     2    33 1   
     8     3     4 1   
     9     3     5 1   
    10     4    35 1   
    11     4    36 1   
    12     4    37 1   
    13     5     6 1   
    14     5    38 1   
    15     5    39 1   
    16     6     7 1   
    17     6    40 1   
    18     6    41 1   
    19     7     8 1   
    20     7    34 1   
    21     8     9 1   
    22     8    42 1   
    23     8    43 1   
    24     9    10 1   
    25     9    44 1   
    26     9    45 1   
    27    10    11 1   
    28    10    46 1   
    29    10    47 1   
    30    11    12 1   
    31    11    48 1   
    32    11    49 1   
    33    12    13 ar  
    34    12    14 ar  
    35    13    17 ar  
    36    13    50 1   
    37    14    15 ar  
    38    14    51 1   
    39    15    16 ar  
    40    15    52 1   
    41    16    17 ar  
    42    16    22 1   
    43    17    18 1   
    44    18    19 1   
    45    19    20 1   
    46    19    53 1   
    47    19    54 1   
    48    20    21 2   
    49    20    22 1   
    50    22    23 1   
    51    23    24 1   
    52    23    55 1   
    53    23    56 1   
    54    24    25 1   
    55    24    29 2   
    56    25    26 2   
    57    25    57 1   
    58    26    27 1   
    59    26    28 1   
    60    27    58 1   
    61    27    59 1   
    62    27    60 1   
    63    28    29 1   
@<TRIPOS>SUBSTRUCTURE
     1 M9M         1 TEMP              0 ****  ****    0 ROOT
