@<TRIPOS>MOLECULE
M9N
   26    27     1     0     0
SMALL
No Charge or Current Charge


@<TRIPOS>ATOM
      1 C10          2.6460    -1.6690    -0.0520 cc         1 M9N      -0.218300
      2 C13          2.1650     0.7810    -0.3060 cc         1 M9N       0.162000
      3 C15          1.1090     2.8910     0.3140 c6         1 M9N       0.411000
      4 C01         -0.2040     0.8110     0.4460 c6         1 M9N       0.341800
      5 C04         -4.4550     0.5090     0.0280 c          1 M9N       0.733000
      6 C07          1.0840     0.0750     0.1260 cd         1 M9N      -0.164300
      7 C08          1.3660    -1.3140     0.3060 cd         1 M9N       0.161000
      8 C11          3.2850    -3.0310     0.0180 c3         1 M9N      -0.007800
      9 N14          2.1310     2.1540    -0.4030 nu         1 M9N      -0.919200
     10 N16         -0.1090     2.1980    -0.0590 n7         1 M9N      -0.856400
     11 O05         -4.9990    -0.3290     0.7350 o          1 M9N      -0.717000
     12 O06         -4.9760     0.9910    -0.9690 o          1 M9N      -0.717000
     13 S02         -1.6670    -0.0010    -0.3270 ss         1 M9N      -0.360000
     14 S12          3.5480    -0.2650    -0.6240 ss         1 M9N       0.105000
     15 Cl1          0.2130    -2.4290     0.9790 cl         1 M9N      -0.158000
     16 H1           1.2460     2.8570     1.4070 h2         1 M9N       0.044200
     17 H2           1.0530     3.9390    -0.0240 h2         1 M9N       0.044200
     18 H3          -0.3750     0.8330     1.5340 h2         1 M9N       0.083700
     19 H4          -2.9430     2.0470     0.1190 h1         1 M9N       0.042700
     20 H5          -2.9600     0.9560     1.5210 h1         1 M9N       0.042700
     21 H6           4.3100    -3.0110    -0.3710 hc         1 M9N       0.042367
     22 H7           3.3250    -3.3900     1.0530 hc         1 M9N       0.042367
     23 H8           2.7160    -3.7600    -0.5720 hc         1 M9N       0.042367
     24 H9           3.0280     2.6140    -0.5630 hn         1 M9N       0.447000
     25 H10         -0.0280     2.1110    -1.0710 hn         1 M9N       0.446000
     26 C03         -3.0450     1.0000     0.4290 c3         1 M9N      -0.072400
@<TRIPOS>BOND
     1     1     7 2   
     2     1     8 1   
     3     1    14 1   
     4     2     6 2   
     5     2     9 1   
     6     2    14 1   
     7     3     9 1   
     8     3    10 1   
     9     3    16 1   
    10     3    17 1   
    11     4     6 1   
    12     4    10 1   
    13     4    13 1   
    14     4    18 1   
    15     5    11 1   
    16     5    12 1   
    17     5    26 1   
    18     6     7 1   
    19     7    15 1   
    20     8    21 1   
    21     8    22 1   
    22     8    23 1   
    23     9    24 1   
    24    10    25 1   
    25    13    26 1   
    26    19    26 1   
    27    20    26 1   
@<TRIPOS>SUBSTRUCTURE
     1 M9N         1 TEMP              0 ****  ****    0 ROOT
