@<TRIPOS>MOLECULE
M9N
   26    27     1     0     0
SMALL
bcc


@<TRIPOS>ATOM
      1 C10          2.5960    -1.6370    -0.1210 cc         1 M9N      -0.073400
      2 C13          2.1160     0.8120    -0.2690 cc         1 M9N       0.168500
      3 C15          1.1540     2.8190     0.4530 c6         1 M9N       0.411000
      4 C01         -0.2350     0.8230     0.5470 c6         1 M9N       0.293900
      5 C04         -4.3370     0.4490    -0.1760 c          1 M9N       0.943600
      6 C07          1.0380     0.1090     0.1910 cd         1 M9N      -0.164300
      7 C08          1.3530    -1.2830     0.2910 cd         1 M9N       0.069400
      8 C11          3.2510    -2.9720    -0.1710 c3         1 M9N      -0.007800
      9 N14          2.1510     2.1780    -0.4070 nu         1 M9N      -0.725600
     10 N16         -0.1490     2.2530     0.2550 n7         1 M9N      -0.801200
     11 O05         -5.3620     0.9240     0.3430 o          1 M9N      -0.822300
     12 O06         -4.2660    -0.3630    -1.1170 o          1 M9N      -0.822300
     13 S02         -1.6210     0.1170    -0.4060 ss         1 M9N      -0.264200
     14 S12          3.4580    -0.2150    -0.6300 ss         1 M9N      -0.184800
     15 CL1          0.2390    -2.4290     0.9420 cl         1 M9N      -0.066400
     16 H1           1.4270     2.7130     1.5100 h2         1 M9N       0.044200
     17 H2           1.1290     3.8810     0.2120 h2         1 M9N       0.044200
     18 H3          -0.4610     0.6830     1.6100 h2         1 M9N       0.083700
     19 H4          -2.9250     2.0210     0.3100 h1         1 M9N       0.042700
     20 H5          -2.9700     0.7260     1.4930 h1         1 M9N       0.042700
     21 H6           3.5860    -3.2180    -1.1800 hc         1 M9N       0.042367
     22 H7           4.1200    -3.0230     0.4860 hc         1 M9N       0.042367
     23 H8           2.5520    -3.7450     0.1420 hc         1 M9N       0.042367
     24 H9           3.0700     2.5950    -0.3530 hn         1 M9N       0.391800
     25 H10         -0.4430     2.4100    -0.7020 hn         1 M9N       0.390800
     26 C03         -3.0060     0.9380     0.4210 c3         1 M9N      -0.120300
@<TRIPOS>BOND
     1     1     7 2   
     2     1     8 1   
     3     1    14 1   
     4     2     6 2   
     5     2     9 1   
     6     2    14 1   
     7     3     9 1   
     8     3    10 1   
     9     3    16 1   
    10     3    17 1   
    11     4     6 1   
    12     4    10 1   
    13     4    13 1   
    14     4    18 1   
    15     5    11 1   
    16     5    12 1   
    17     5    26 1   
    18     6     7 1   
    19     7    15 1   
    20     8    21 1   
    21     8    22 1   
    22     8    23 1   
    23     9    24 1   
    24    10    25 1   
    25    13    26 1   
    26    19    26 1   
    27    20    26 1   
@<TRIPOS>SUBSTRUCTURE
     1 M9N         1 TEMP              0 ****  ****    0 ROOT
