@<TRIPOS>MOLECULE
M9P
   31    30     1     0     0
SMALL
No Charge or Current Charge


@<TRIPOS>ATOM
      1 N           -1.1420     1.6120     0.5570 n8         1 M9P      -1.026200
      2 F1          -3.7420     0.2310    -1.4750 f          1 M9P      -0.107667
      3 F2          -4.0080     1.2060     0.4660 f          1 M9P      -0.107667
      4 F3          -4.7800    -0.8050     0.1440 f          1 M9P      -0.107667
      5 CA          -1.1110     0.2500    -0.0330 c3         1 M9P       0.151500
      6 CB           0.2230    -0.4460     0.3700 c3         1 M9P      -0.065400
      7 CD           2.7950    -0.4650     0.2670 c3         1 M9P       0.059600
      8 NE           3.9730     0.2900    -0.1990 nu         1 M9P      -0.890000
      9 CG           1.5050     0.2980    -0.0870 c3         1 M9P      -0.091400
     10 CI          -2.3890    -0.5930     0.3460 c3         1 M9P       0.069300
     11 CZ           5.2490    -0.0220    -0.0960 cz         1 M9P       0.934600
     12 NH1          5.6170    -1.1280     0.4800 nv         1 M9P      -0.611300
     13 NH2          6.1400     0.7910    -0.5780 nv         1 M9P      -0.611300
     14 OI2         -2.2580    -1.9440    -0.1630 oh         1 M9P      -0.621000
     15 HN          -2.0380     2.0640     0.3380 hn         1 M9P       0.426000
     16 HA          -1.1050     0.3660    -1.1270 h1         1 M9P       0.069700
     17 HNE          3.7770     1.1730    -0.6570 hn         1 M9P       0.374000
     18 HNH1         4.9340    -1.7620     0.8570 hn         1 M9P       0.379250
     19 HNHA         6.5840    -1.3910     0.5730 hn         1 M9P       0.379250
     20 HNH2         7.1250     0.5940    -0.5230 hn         1 M9P       0.379250
     21 HB           0.2500    -0.5800     1.4580 hc         1 M9P       0.056700
     22 HBA          0.2530    -1.4520    -0.0660 hc         1 M9P       0.056700
     23 HD           2.7660    -1.4580    -0.2070 h1         1 M9P       0.065200
     24 HDA          2.8390    -0.6090     1.3560 h1         1 M9P       0.065200
     25 HG           1.4620     0.4520    -1.1720 hc         1 M9P       0.070200
     26 HGA          1.5410     1.2900     0.3790 hc         1 M9P       0.070200
     27 HOI2        -2.4000    -1.9160    -1.1360 ho         1 M9P       0.457000
     28 HNA         -1.1520     1.5440     1.5820 hn         1 M9P       0.426000
     29 HI          -2.4330    -0.6320     1.4440 h1         1 M9P       0.106700
     30 HNHB         5.8780     1.6510    -1.0300 hn         1 M9P       0.379250
     31 CF          -3.7470     0.0230    -0.1370 c3         1 M9P       0.264000
@<TRIPOS>BOND
     1     1     5 1   
     2     1    15 1   
     3     1    28 1   
     4     2    31 1   
     5     3    31 1   
     6     4    31 1   
     7     5     6 1   
     8     5    10 1   
     9     5    16 1   
    10     6     9 1   
    11     6    21 1   
    12     6    22 1   
    13     7     8 1   
    14     7     9 1   
    15     7    23 1   
    16     7    24 1   
    17     8    11 2   
    18     8    17 1   
    19     9    25 1   
    20     9    26 1   
    21    10    14 1   
    22    10    29 1   
    23    10    31 1   
    24    11    12 1   
    25    11    13 1   
    26    12    18 1   
    27    12    19 1   
    28    13    20 1   
    29    13    30 1   
    30    14    27 1   
@<TRIPOS>SUBSTRUCTURE
     1 M9P         1 TEMP              0 ****  ****    0 ROOT
