@<TRIPOS>MOLECULE
M9P
   31    30     1     0     0
SMALL
bcc


@<TRIPOS>ATOM
      1 N           -1.1190     1.5880     0.5550 n8         1 M9P      -0.915800
      2 F1          -3.7250     0.4740    -1.2180 f          1 M9P      -0.228967
      3 F2          -3.9470     0.9570     0.8730 f          1 M9P      -0.228967
      4 F3          -4.6220    -0.9390     0.1340 f          1 M9P      -0.228967
      5 CA          -1.0820     0.2670    -0.0360 c3         1 M9P       0.151500
      6 CB           0.2230    -0.4230     0.3710 c3         1 M9P      -0.065400
      7 CD           2.7320    -0.3760     0.2680 c3         1 M9P       0.030300
      8 NE           3.8790     0.3450    -0.2600 nu         1 M9P      -0.405100
      9 CG           1.4460     0.2900    -0.1870 c3         1 M9P      -0.091400
     10 CI          -2.2750    -0.6590     0.3030 c3         1 M9P       0.046100
     11 CZ           5.1410    -0.0210    -0.0870 cz         1 M9P       0.529300
     12 NH1          5.4320    -1.1300     0.5800 nv         1 M9P      -0.510700
     13 NH2          6.1200     0.7330    -0.5710 nv         1 M9P      -0.510700
     14 OI2         -2.2010    -1.8860    -0.3700 oh         1 M9P      -0.558800
     15 HN          -1.8340     2.1740     0.1510 hn         1 M9P       0.370800
     16 HA          -1.0700     0.4020    -1.1250 h1         1 M9P       0.069700
     17 HNE          3.7080     1.2230    -0.7260 hn         1 M9P       0.323700
     18 HNH1         4.7150    -1.7410     0.9320 hn         1 M9P       0.328950
     19 HNHA         6.3800    -1.4550     0.6570 hn         1 M9P       0.328950
     20 HNH2         7.0840     0.4600    -0.4800 hn         1 M9P       0.328950
     21 HB           0.2780    -0.4520     1.4650 hc         1 M9P       0.056700
     22 HBA          0.2250    -1.4610     0.0340 hc         1 M9P       0.056700
     23 HD           2.7560    -1.4110    -0.0860 h1         1 M9P       0.065200
     24 HDA          2.7760    -0.3970     1.3610 h1         1 M9P       0.065200
     25 HG           1.4050     0.2870    -1.2810 hc         1 M9P       0.070200
     26 HGA          1.4390     1.3340     0.1320 hc         1 M9P       0.070200
     27 HOI2        -1.9980    -1.7320    -1.3000 ho         1 M9P       0.418000
     28 HNA         -1.2900     1.5390     1.5520 hn         1 M9P       0.370800
     29 HI          -2.2510    -0.8850     1.3750 h1         1 M9P       0.106700
     30 HNHB         5.9240     1.5600    -1.1080 hn         1 M9P       0.328950
     31 CF          -3.6440    -0.0330     0.0240 c3         1 M9P       0.627900
@<TRIPOS>BOND
     1     1     5 1   
     2     1    15 1   
     3     1    28 1   
     4     2    31 1   
     5     3    31 1   
     6     4    31 1   
     7     5     6 1   
     8     5    10 1   
     9     5    16 1   
    10     6     9 1   
    11     6    21 1   
    12     6    22 1   
    13     7     8 1   
    14     7     9 1   
    15     7    23 1   
    16     7    24 1   
    17     8    11 2   
    18     8    17 1   
    19     9    25 1   
    20     9    26 1   
    21    10    14 1   
    22    10    29 1   
    23    10    31 1   
    24    11    12 1   
    25    11    13 1   
    26    12    18 1   
    27    12    19 1   
    28    13    20 1   
    29    13    30 1   
    30    14    27 1   
@<TRIPOS>SUBSTRUCTURE
     1 M9P         1 TEMP              0 ****  ****    0 ROOT
