@<TRIPOS>MOLECULE
M9Q
   83    86     1     0     0
SMALL
No Charge or Current Charge


@<TRIPOS>ATOM
      1 O3          35.5730   -20.3620    -5.6400 oh         1 M9Q      -0.656000
      2 C5          23.8810   -18.3720    -9.3920 cx         1 M9Q      -0.141800
      3 O4          32.8390   -23.6990    -5.5650 oh         1 M9Q      -0.658000
      4 C6          23.6560   -19.5990   -10.2560 cx         1 M9Q      -0.111900
      5 C7          24.8640   -19.5260    -9.3590 cx         1 M9Q      -0.111900
      6 C8          23.0030   -18.1570    -8.1510 c3         1 M9Q       0.259500
      7 C10         24.2900   -17.7800    -5.9930 c2         1 M9Q      -0.201200
      8 C11         24.9590   -16.9220    -4.9320 c3         1 M9Q      -0.014500
      9 C12         24.0820   -16.9130    -3.6610 c3         1 M9Q      -0.087100
     10 C13         26.4460   -17.2900    -4.6180 c5         1 M9Q      -0.049700
     11 C14         26.7130   -18.7240    -4.0280 c5         1 M9Q      -0.073400
     12 C15         28.2040   -19.0510    -4.3950 c5         1 M9Q      -0.070400
     13 O1          21.5930   -17.5250   -11.2230 o          1 M9Q      -0.510000
     14 C2          22.3540   -16.6340   -11.5720 c          1 M9Q       0.605300
     15 O           22.0510   -15.6890   -12.5130 os         1 M9Q      -0.443100
     16 C1          20.7700   -15.7670   -13.1580 c3         1 M9Q       0.167600
     17 C           20.6860   -14.6060   -14.1620 c3         1 M9Q      -0.097100
     18 C3          23.7020   -16.3800   -10.9890 ce         1 M9Q      -0.277200
     19 O2          21.7800   -17.5290    -8.5070 oh         1 M9Q      -0.670000
     20 C30         27.5030   -17.2180    -5.8070 c5         1 M9Q      -0.040000
     21 C31         27.2080   -18.1340    -7.0750 c3         1 M9Q      -0.078100
     22 C16         28.7270   -17.6920    -4.9590 c5         1 M9Q      -0.035500
     23 C29         27.7730   -15.7700    -6.3140 c6         1 M9Q      -0.064400
     24 C28         29.0390   -15.7060    -7.2160 c6         1 M9Q      -0.070400
     25 C27         30.2900   -16.3530    -6.5540 c6         1 M9Q      -0.041200
     26 C17         29.9870   -17.6850    -5.8500 c2         1 M9Q      -0.080400
     27 C18         30.7710   -18.7970    -5.8750 ce         1 M9Q      -0.189000
     28 C19         32.0440   -18.9390    -6.6050 ce         1 M9Q      -0.156000
     29 C20         32.7110   -20.1090    -6.8440 cf         1 M9Q      -0.072200
     30 C25         32.2310   -21.4470    -6.4710 cf         1 M9Q      -0.115200
     31 C26         30.9650   -21.8560    -6.7460 c2         1 M9Q      -0.304000
     32 C24         33.2830   -22.3550    -5.7830 c6         1 M9Q       0.212500
     33 C23         34.5900   -22.3870    -6.6070 c6         1 M9Q      -0.108400
     34 C22         35.1420   -20.9660    -6.8670 c6         1 M9Q       0.175300
     35 C21         34.0760   -20.0840    -7.5640 c6         1 M9Q      -0.030200
     36 H1          36.3540   -20.8710    -5.3340 ho         1 M9Q       0.440000
     37 H2          25.3500   -16.7850    -9.7290 ha         1 M9Q       0.184000
     38 H3          32.0490   -23.6310    -4.9870 ho         1 M9Q       0.446000
     39 H4          23.8170   -19.5060   -11.3270 hc         1 M9Q       0.076950
     40 H5          22.8580   -20.2830    -9.9760 hc         1 M9Q       0.076950
     41 H6          24.8800   -20.1630    -8.4780 hc         1 M9Q       0.076950
     42 H7          25.8340   -19.3880    -9.8320 hc         1 M9Q       0.076950
     43 H8          22.7810   -19.1400    -7.7110 h1         1 M9Q       0.036700
     44 H9          23.6870   -16.2450    -7.3230 ha         1 M9Q       0.177000
     45 H10         24.2880   -18.8500    -5.7840 ha         1 M9Q       0.163000
     46 H11         24.9630   -15.8870    -5.2950 hc         1 M9Q       0.051700
     47 H12         24.5030   -16.2450    -2.9000 hc         1 M9Q       0.035033
     48 H13         23.0700   -16.5600    -3.8960 hc         1 M9Q       0.035033
     49 H14         24.0010   -17.9180    -3.2310 hc         1 M9Q       0.035033
     50 H15         26.7330   -16.5500    -3.8590 hc         1 M9Q       0.043700
     51 H16         26.5530   -18.7370    -2.9440 hc         1 M9Q       0.041700
     52 H17         26.0430   -19.4820    -4.4480 hc         1 M9Q       0.041700
     53 H18         28.7790   -19.3820    -3.5230 hc         1 M9Q       0.043700
     54 H19         28.2480   -19.8590    -5.1340 hc         1 M9Q       0.043700
     55 H20         20.6570   -16.7210   -13.6910 h1         1 M9Q       0.049200
     56 H21         19.9560   -15.6780   -12.4260 h1         1 M9Q       0.049200
     57 H22         19.7210   -14.6230   -14.6820 hc         1 M9Q       0.047367
     58 H23         20.7820   -13.6430   -13.6470 hc         1 M9Q       0.047367
     59 H24         21.4820   -14.6850   -14.9110 hc         1 M9Q       0.047367
     60 H25         24.1870   -15.4930   -11.3920 ha         1 M9Q       0.200000
     61 H26         21.7100   -17.6450    -9.4880 ho         1 M9Q       0.480000
     62 H27         26.7770   -19.1030    -6.8010 hc         1 M9Q       0.033700
     63 H28         26.4940   -17.6500    -7.7480 hc         1 M9Q       0.033700
     64 H29         28.1100   -18.3450    -7.6600 hc         1 M9Q       0.033700
     65 H30         28.9190   -17.0080    -4.1220 hc         1 M9Q       0.053700
     66 H31         27.9100   -15.0950    -5.4570 hc         1 M9Q       0.040200
     67 H32         26.9030   -15.3900    -6.8660 hc         1 M9Q       0.040200
     68 H33         28.8390   -16.1990    -8.1760 hc         1 M9Q       0.040200
     69 H34         29.2590   -14.6590    -7.4660 hc         1 M9Q       0.040200
     70 H35         31.0640   -16.4660    -7.3230 hc         1 M9Q       0.046200
     71 H36         30.6990   -15.6560    -5.8110 hc         1 M9Q       0.046200
     72 H37         30.4920   -19.6780    -5.3020 ha         1 M9Q       0.175000
     73 H38         32.5140   -18.0210    -6.9530 ha         1 M9Q       0.172000
     74 H39         30.6040   -22.8520    -6.4930 ha         1 M9Q       0.168000
     75 H40         30.2640   -21.1970    -7.2560 ha         1 M9Q       0.168000
     76 H41         33.5130   -21.8990    -4.8080 h1         1 M9Q       0.047700
     77 H42         35.3460   -22.9940    -6.0910 hc         1 M9Q       0.057200
     78 H43         34.4020   -22.8820    -7.5700 hc         1 M9Q       0.057200
     79 H44         36.0030   -21.0510    -7.5450 h1         1 M9Q       0.033700
     80 H45         33.9310   -20.4410    -8.5930 hc         1 M9Q       0.056700
     81 H46         34.4530   -19.0560    -7.6530 hc         1 M9Q       0.056700
     82 C9          23.7000   -17.3140    -7.1080 c2         1 M9Q      -0.220200
     83 C4          24.3600   -17.1140   -10.0540 c2         1 M9Q      -0.088200
@<TRIPOS>BOND
     1     1    34 1   
     2     1    36 1   
     3     2     4 1   
     4     2     5 1   
     5     2     6 1   
     6     2    83 1   
     7     3    32 1   
     8     3    38 1   
     9     4     5 1   
    10     4    39 1   
    11     4    40 1   
    12     5    41 1   
    13     5    42 1   
    14     6    19 1   
    15     6    43 1   
    16     6    82 1   
    17     7     8 1   
    18     7    45 1   
    19     7    82 2   
    20     8     9 1   
    21     8    10 1   
    22     8    46 1   
    23     9    47 1   
    24     9    48 1   
    25     9    49 1   
    26    10    11 1   
    27    10    20 1   
    28    10    50 1   
    29    11    12 1   
    30    11    51 1   
    31    11    52 1   
    32    12    22 1   
    33    12    53 1   
    34    12    54 1   
    35    13    14 2   
    36    14    15 1   
    37    14    18 1   
    38    15    16 1   
    39    16    17 1   
    40    16    55 1   
    41    16    56 1   
    42    17    57 1   
    43    17    58 1   
    44    17    59 1   
    45    18    60 1   
    46    18    83 2   
    47    19    61 1   
    48    20    21 1   
    49    20    22 1   
    50    20    23 1   
    51    21    62 1   
    52    21    63 1   
    53    21    64 1   
    54    22    26 1   
    55    22    65 1   
    56    23    24 1   
    57    23    66 1   
    58    23    67 1   
    59    24    25 1   
    60    24    68 1   
    61    24    69 1   
    62    25    26 1   
    63    25    70 1   
    64    25    71 1   
    65    26    27 2   
    66    27    28 1   
    67    27    72 1   
    68    28    29 2   
    69    28    73 1   
    70    29    30 1   
    71    29    35 1   
    72    30    31 2   
    73    30    32 1   
    74    31    74 1   
    75    31    75 1   
    76    32    33 1   
    77    32    76 1   
    78    33    34 1   
    79    33    77 1   
    80    33    78 1   
    81    34    35 1   
    82    34    79 1   
    83    35    80 1   
    84    35    81 1   
    85    37    83 1   
    86    44    82 1   
@<TRIPOS>SUBSTRUCTURE
     1 M9Q         1 TEMP              0 ****  ****    0 ROOT
