@<TRIPOS>MOLECULE
M9Q
   83    86     1     0     0
SMALL
bcc


@<TRIPOS>ATOM
      1 O3          34.7020   -20.7350    -6.7030 oh         1 M9Q      -0.593800
      2 C5          24.0650   -18.4940    -8.7960 cx         1 M9Q      -0.141800
      3 O4          31.5270   -23.3240    -7.8650 oh         1 M9Q      -0.595800
      4 C6          23.7300   -19.8100    -9.4300 cx         1 M9Q      -0.111900
      5 C7          24.8520   -19.7180    -8.4410 cx         1 M9Q      -0.111900
      6 C8          23.1110   -17.9660    -7.7250 c3         1 M9Q       0.236300
      7 C10         24.1980   -17.4700    -5.5370 c2         1 M9Q      -0.151200
      8 C11         24.9510   -16.6400    -4.5380 c3         1 M9Q      -0.014500
      9 C12         24.0850   -16.4900    -3.2810 c3         1 M9Q      -0.087100
     10 C13         26.3440   -17.1790    -4.1520 c5         1 M9Q      -0.049700
     11 C14         26.4530   -18.7040    -3.9140 c5         1 M9Q      -0.073400
     12 C15         27.9140   -19.0920    -4.2420 c5         1 M9Q      -0.070400
     13 O1          22.2030   -17.7310   -11.1100 o          1 M9Q      -0.559000
     14 C2          23.2400   -17.2850   -11.5530 c          1 M9Q       0.654300
     15 O           23.4220   -17.0230   -12.8370 os         1 M9Q      -0.419900
     16 C1          22.3330   -17.2610   -13.7420 c3         1 M9Q       0.144400
     17 C           22.7810   -16.8380   -15.1200 c3         1 M9Q      -0.097100
     18 C3          24.4420   -16.9360   -10.7710 ce         1 M9Q      -0.227200
     19 O2          22.0440   -17.2460    -8.2930 oh         1 M9Q      -0.607800
     20 C30         27.5280   -16.8560    -5.0840 c5         1 M9Q      -0.040000
     21 C31         27.2480   -17.2630    -6.5320 c3         1 M9Q      -0.078100
     22 C16         28.6160   -17.7550    -4.4470 c5         1 M9Q      -0.035500
     23 C29         28.0090   -15.4070    -5.0270 c6         1 M9Q      -0.064400
     24 C28         29.3660   -15.2380    -5.7130 c6         1 M9Q      -0.070400
     25 C27         30.4180   -16.2340    -5.1980 c6         1 M9Q      -0.041200
     26 C17         29.9040   -17.6490    -5.2010 c2         1 M9Q      -0.080400
     27 C18         30.4620   -18.6850    -5.8450 ce         1 M9Q      -0.139000
     28 C19         31.6690   -18.6570    -6.6510 ce         1 M9Q      -0.106000
     29 C20         32.0830   -19.6290    -7.4800 cf         1 M9Q      -0.072200
     30 C25         31.3470   -20.8860    -7.7310 cf         1 M9Q      -0.115200
     31 C26         30.0870   -20.9140    -8.1610 c2         1 M9Q      -0.204000
     32 C24         32.1840   -22.1310    -7.5220 c6         1 M9Q       0.189300
     33 C23         33.4610   -22.0310    -8.3530 c6         1 M9Q      -0.108400
     34 C22         34.2470   -20.7600    -8.0410 c6         1 M9Q       0.152100
     35 C21         33.3750   -19.5270    -8.2450 c6         1 M9Q      -0.030200
     36 H1          35.2480   -21.5140    -6.5570 ho         1 M9Q       0.401000
     37 H2          25.6820   -17.0690    -9.1330 ha         1 M9Q       0.134000
     38 H3          30.8360   -23.4890    -7.2160 ho         1 M9Q       0.407000
     39 H4          23.9860   -19.9610   -10.4710 hc         1 M9Q       0.076950
     40 H5          22.8130   -20.3000    -9.1250 hc         1 M9Q       0.076950
     41 H6          24.7130   -20.1380    -7.4520 hc         1 M9Q       0.076950
     42 H7          25.8660   -19.7930    -8.8160 hc         1 M9Q       0.076950
     43 H8          22.7430   -18.8520    -7.1830 h1         1 M9Q       0.036700
     44 H9          24.1030   -16.0910    -7.1110 ha         1 M9Q       0.127000
     45 H10         23.8970   -18.4620    -5.2030 ha         1 M9Q       0.113000
     46 H11         25.0900   -15.6400    -4.9670 hc         1 M9Q       0.051700
     47 H12         24.5610   -15.8260    -2.5580 hc         1 M9Q       0.035033
     48 H13         23.1050   -16.0770    -3.5220 hc         1 M9Q       0.035033
     49 H14         23.9270   -17.4540    -2.7930 hc         1 M9Q       0.035033
     50 H15         26.5920   -16.6880    -3.2020 hc         1 M9Q       0.043700
     51 H16         26.1880   -18.9580    -2.8870 hc         1 M9Q       0.041700
     52 H17         25.7700   -19.2620    -4.5550 hc         1 M9Q       0.041700
     53 H18         28.3800   -19.6820    -3.4520 hc         1 M9Q       0.043700
     54 H19         27.9470   -19.6990    -5.1490 hc         1 M9Q       0.043700
     55 H20         22.0670   -18.3190   -13.7250 h1         1 M9Q       0.049200
     56 H21         21.4590   -16.6900   -13.4220 h1         1 M9Q       0.049200
     57 H22         21.9680   -17.0050   -15.8260 hc         1 M9Q       0.047367
     58 H23         23.0380   -15.7790   -15.1510 hc         1 M9Q       0.047367
     59 H24         23.6410   -17.4160   -15.4580 hc         1 M9Q       0.047367
     60 H25         25.1090   -16.2160   -11.2280 ha         1 M9Q       0.150000
     61 H26         21.9250   -17.5440    -9.2070 ho         1 M9Q       0.441000
     62 H27         26.8030   -18.2540    -6.6150 hc         1 M9Q       0.033700
     63 H28         26.5520   -16.5640    -6.9950 hc         1 M9Q       0.033700
     64 H29         28.1570   -17.2640    -7.1350 hc         1 M9Q       0.033700
     65 H30         28.7990   -17.3290    -3.4480 hc         1 M9Q       0.053700
     66 H31         28.0950   -15.1050    -3.9770 hc         1 M9Q       0.040200
     67 H32         27.2760   -14.7340    -5.4840 hc         1 M9Q       0.040200
     68 H33         29.2560   -15.3570    -6.7940 hc         1 M9Q       0.040200
     69 H34         29.7330   -14.2220    -5.5570 hc         1 M9Q       0.040200
     70 H35         31.3340   -16.1250    -5.7780 hc         1 M9Q       0.046200
     71 H36         30.6670   -15.9660    -4.1650 hc         1 M9Q       0.046200
     72 H37         29.9590   -19.6440    -5.7830 ha         1 M9Q       0.125000
     73 H38         32.3020   -17.7780    -6.5760 ha         1 M9Q       0.122000
     74 H39         29.5690   -21.8390    -8.3770 ha         1 M9Q       0.118000
     75 H40         29.5310   -19.9980    -8.3180 ha         1 M9Q       0.118000
     76 H41         32.4730   -22.1460    -6.4610 h1         1 M9Q       0.047700
     77 H42         34.0880   -22.9110    -8.1760 hc         1 M9Q       0.057200
     78 H43         33.2020   -22.0340    -9.4160 hc         1 M9Q       0.057200
     79 H44         35.0960   -20.7040    -8.7350 h1         1 M9Q       0.033700
     80 H45         33.1590   -19.4490    -9.3170 hc         1 M9Q       0.056700
     81 H46         33.9230   -18.6250    -7.9650 hc         1 M9Q       0.056700
     82 C9          23.8300   -17.0810    -6.7510 c2         1 M9Q      -0.170200
     83 C4          24.7700   -17.4490    -9.5840 c2         1 M9Q      -0.038200
@<TRIPOS>BOND
     1     1    34 1   
     2     1    36 1   
     3     2     4 1   
     4     2     5 1   
     5     2     6 1   
     6     2    83 1   
     7     3    32 1   
     8     3    38 1   
     9     4     5 1   
    10     4    39 1   
    11     4    40 1   
    12     5    41 1   
    13     5    42 1   
    14     6    19 1   
    15     6    43 1   
    16     6    82 1   
    17     7     8 1   
    18     7    45 1   
    19     7    82 2   
    20     8     9 1   
    21     8    10 1   
    22     8    46 1   
    23     9    47 1   
    24     9    48 1   
    25     9    49 1   
    26    10    11 1   
    27    10    20 1   
    28    10    50 1   
    29    11    12 1   
    30    11    51 1   
    31    11    52 1   
    32    12    22 1   
    33    12    53 1   
    34    12    54 1   
    35    13    14 2   
    36    14    15 1   
    37    14    18 1   
    38    15    16 1   
    39    16    17 1   
    40    16    55 1   
    41    16    56 1   
    42    17    57 1   
    43    17    58 1   
    44    17    59 1   
    45    18    60 1   
    46    18    83 2   
    47    19    61 1   
    48    20    21 1   
    49    20    22 1   
    50    20    23 1   
    51    21    62 1   
    52    21    63 1   
    53    21    64 1   
    54    22    26 1   
    55    22    65 1   
    56    23    24 1   
    57    23    66 1   
    58    23    67 1   
    59    24    25 1   
    60    24    68 1   
    61    24    69 1   
    62    25    26 1   
    63    25    70 1   
    64    25    71 1   
    65    26    27 2   
    66    27    28 1   
    67    27    72 1   
    68    28    29 2   
    69    28    73 1   
    70    29    30 1   
    71    29    35 1   
    72    30    31 2   
    73    30    32 1   
    74    31    74 1   
    75    31    75 1   
    76    32    33 1   
    77    32    76 1   
    78    33    34 1   
    79    33    77 1   
    80    33    78 1   
    81    34    35 1   
    82    34    79 1   
    83    35    80 1   
    84    35    81 1   
    85    37    83 1   
    86    44    82 1   
@<TRIPOS>SUBSTRUCTURE
     1 M9Q         1 TEMP              0 ****  ****    0 ROOT
