@<TRIPOS>MOLECULE
M9R
   55    58     1     0     0
SMALL
No Charge or Current Charge


@<TRIPOS>ATOM
      1 F35         15.9460    18.9590   -25.8830 f          1 M9R      -0.118667
      2 C07         17.1360    19.5800   -25.7070 c3         1 M9R       0.351300
      3 F33         16.9330    20.8870   -25.9950 f          1 M9R      -0.118667
      4 F34         17.4270    19.5080   -24.3890 f          1 M9R      -0.118667
      5 C05         18.2480    18.9540   -26.5600 ca         1 M9R      -0.147300
      6 C04         19.2800    19.7480   -27.1030 ca         1 M9R      -0.134000
      7 C03         20.2990    19.1620   -27.8700 ca         1 M9R      -0.071000
      8 C02         20.3020    17.7770   -28.0980 ca         1 M9R      -0.173000
      9 C06         18.2710    17.5600   -26.7920 ca         1 M9R      -0.153000
     10 C01         19.2890    16.9590   -27.5620 ca         1 M9R       0.356000
     11 N08         19.2960    15.5600   -27.7890 nh         1 M9R      -0.833400
     12 C13         18.0390    14.7360   -27.7940 c6         1 M9R       0.213300
     13 C12         18.1310    13.4550   -28.6960 c6         1 M9R       0.205800
     14 N11         19.3130    12.5780   -28.3970 nh         1 M9R      -0.827400
     15 C10         20.4500    13.2690   -27.7010 c6         1 M9R       0.205800
     16 C09         20.5610    14.7940   -28.0470 c6         1 M9R       0.213300
     17 C14         19.1590    11.1760   -28.3210 ca         1 M9R       0.246000
     18 C19         19.2260    10.5450   -27.0670 ca         1 M9R      -0.178000
     19 C18         19.0120     9.1630   -26.9390 ca         1 M9R      -0.064000
     20 C17         18.7110     8.3750   -28.0710 ca         1 M9R      -0.138600
     21 C20         18.4660     6.8810   -27.9360 c          1 M9R       0.714600
     22 O22         18.2060     6.2370   -28.9430 o          1 M9R      -0.713500
     23 O21         18.5380     6.3740   -26.8250 o          1 M9R      -0.713500
     24 C16         18.6450     9.0090   -29.3320 ca         1 M9R      -0.074000
     25 C15         18.8830    10.3910   -29.4700 ca         1 M9R      -0.124000
     26 N23         18.8270    10.9360   -30.7840 ns         1 M9R      -0.142000
     27 C24         19.5670    11.9500   -31.3820 c          1 M9R       0.629700
     28 O25         19.0800    12.5940   -32.3070 o          1 M9R      -0.631100
     29 C26         21.0180    12.1510   -30.9760 ca         1 M9R      -0.131600
     30 C31         21.6410    13.3880   -31.2580 ca         1 M9R      -0.038500
     31 C30         22.9780    13.6190   -30.8890 ca         1 M9R      -0.170000
     32 C29         23.7090    12.6110   -30.2480 ca         1 M9R       0.173000
     33 F32         24.9930    12.8340   -29.8930 f          1 M9R      -0.189000
     34 C28         23.1170    11.3690   -29.9830 ca         1 M9R      -0.170000
     35 C27         21.7800    11.1340   -30.3490 ca         1 M9R      -0.038500
     36 H1          19.2990    20.8230   -26.9320 ha         1 M9R       0.123000
     37 H2          21.0880    19.7830   -28.2890 ha         1 M9R       0.110000
     38 H3          21.0930    17.3450   -28.7030 ha         1 M9R       0.117000
     39 H4          17.4960    16.9370   -26.3560 ha         1 M9R       0.129000
     40 H5          17.1930    15.3410   -28.1540 h1         1 M9R       0.046450
     41 H6          17.8000    14.4240   -26.7670 h1         1 M9R       0.046450
     42 H7          18.1700    13.7770   -29.7470 h1         1 M9R       0.050700
     43 H8          17.1990    12.8840   -28.5770 h1         1 M9R       0.050700
     44 H9          21.4010    12.7840   -27.9650 h1         1 M9R       0.050700
     45 H10         20.3330    13.1780   -26.6110 h1         1 M9R       0.050700
     46 H11         21.3850    15.2160   -27.4530 h1         1 M9R       0.046450
     47 H12         20.8400    14.8940   -29.1050 h1         1 M9R       0.046450
     48 H13         19.4250    11.1290   -26.1730 ha         1 M9R       0.095000
     49 H14         19.0680     8.7090   -25.9520 ha         1 M9R       0.133000
     50 H16         18.4220     8.4210   -30.2210 ha         1 M9R       0.139000
     51 H17         17.9710    10.7140   -31.2750 hn         1 M9R       0.145000
     52 H18         21.0820    14.1820   -31.7500 ha         1 M9R       0.133500
     53 H19         23.4440    14.5780   -31.0980 ha         1 M9R       0.128000
     54 H20         23.6950    10.5870   -29.4980 ha         1 M9R       0.128000
     55 H21         21.3540    10.1550   -30.1510 ha         1 M9R       0.133500
@<TRIPOS>BOND
     1     1     2 1   
     2     2     3 1   
     3     2     4 1   
     4     2     5 1   
     5     5     6 ar  
     6     5     9 ar  
     7     6     7 ar  
     8     6    36 1   
     9     7     8 ar  
    10     7    37 1   
    11     8    10 ar  
    12     8    38 1   
    13     9    10 ar  
    14     9    39 1   
    15    10    11 1   
    16    11    12 1   
    17    11    16 1   
    18    12    13 1   
    19    12    40 1   
    20    12    41 1   
    21    13    14 1   
    22    13    42 1   
    23    13    43 1   
    24    14    15 1   
    25    14    17 1   
    26    15    16 1   
    27    15    44 1   
    28    15    45 1   
    29    16    46 1   
    30    16    47 1   
    31    17    18 ar  
    32    17    25 ar  
    33    18    19 ar  
    34    18    48 1   
    35    19    20 ar  
    36    19    49 1   
    37    20    21 1   
    38    20    24 ar  
    39    21    22 1   
    40    21    23 1   
    41    24    25 ar  
    42    24    50 1   
    43    25    26 1   
    44    26    27 1   
    45    26    51 1   
    46    27    28 2   
    47    27    29 1   
    48    29    30 ar  
    49    29    35 ar  
    50    30    31 ar  
    51    30    52 1   
    52    31    32 ar  
    53    31    53 1   
    54    32    33 1   
    55    32    34 ar  
    56    34    35 ar  
    57    34    54 1   
    58    35    55 1   
@<TRIPOS>SUBSTRUCTURE
     1 M9R         1 TEMP              0 ****  ****    0 ROOT
