@<TRIPOS>MOLECULE
M9R
   55    58     1     0     0
SMALL
abcg2


@<TRIPOS>ATOM
      1 F35         15.6560    18.7660   -26.1560 f          1 M9R      -0.118667
      2 C07         16.7540    19.5160   -26.0190 c3         1 M9R       0.351300
      3 F33         16.4620    20.7290   -26.5080 f          1 M9R      -0.118667
      4 F34         16.9450    19.6780   -24.6990 f          1 M9R      -0.118667
      5 C05         17.9620    18.9210   -26.6740 ca         1 M9R      -0.147300
      6 C04         19.0450    19.7510   -26.9420 ca         1 M9R      -0.134000
      7 C03         20.1890    19.1800   -27.4770 ca         1 M9R      -0.071000
      8 C02         20.2610    17.8250   -27.7420 ca         1 M9R      -0.173000
      9 C06         18.0140    17.5590   -26.9270 ca         1 M9R      -0.153000
     10 C01         19.1730    16.9760   -27.4720 ca         1 M9R       0.356000
     11 N08         19.2500    15.6370   -27.7240 nh         1 M9R      -0.833400
     12 C13         18.0830    14.7810   -27.7500 c6         1 M9R       0.213300
     13 C12         18.2940    13.6380   -28.7330 c6         1 M9R       0.205800
     14 N11         19.4770    12.8500   -28.3960 nh         1 M9R      -0.827400
     15 C10         20.4400    13.5230   -27.5540 c6         1 M9R       0.205800
     16 C09         20.5310    14.9900   -27.9270 c6         1 M9R       0.213300
     17 C14         19.3520    11.4710   -28.2890 ca         1 M9R       0.246000
     18 C19         19.7300    10.7700   -27.1400 ca         1 M9R      -0.178000
     19 C18         19.5540     9.3990   -27.0460 ca         1 M9R      -0.064000
     20 C17         18.9860     8.6660   -28.0820 ca         1 M9R      -0.138600
     21 C20         18.7580     7.1650   -27.9620 c          1 M9R       0.714600
     22 O22         18.2180     6.6040   -28.9350 o          1 M9R      -0.713500
     23 O21         19.1300     6.6310   -26.8980 o          1 M9R      -0.713500
     24 C16         18.6610     9.3510   -29.2480 ca         1 M9R      -0.074000
     25 C15         18.8670    10.7150   -29.3730 ca         1 M9R      -0.124000
     26 N23         18.6130    11.3430   -30.6170 ns         1 M9R      -0.142000
     27 C24         19.5080    12.0810   -31.3180 c          1 M9R       0.629700
     28 O25         19.1580    12.8510   -32.1980 o          1 M9R      -0.631100
     29 C26         20.9550    11.9030   -30.9960 ca         1 M9R      -0.131600
     30 C31         21.7680    13.0340   -30.9740 ca         1 M9R      -0.038500
     31 C30         23.1240    12.9310   -30.7110 ca         1 M9R      -0.170000
     32 C29         23.6600    11.6740   -30.5030 ca         1 M9R       0.173000
     33 F32         24.9730    11.5610   -30.2570 f          1 M9R      -0.189000
     34 C28         22.8900    10.5280   -30.5520 ca         1 M9R      -0.170000
     35 C27         21.5300    10.6520   -30.7940 ca         1 M9R      -0.038500
     36 H1          19.0090    20.8140   -26.7440 ha         1 M9R       0.123000
     37 H2          21.0430    19.8050   -27.7040 ha         1 M9R       0.110000
     38 H3          21.1660    17.4320   -28.1840 ha         1 M9R       0.117000
     39 H4          17.1660    16.9360   -26.6800 ha         1 M9R       0.129000
     40 H5          17.2160    15.3460   -28.0970 h1         1 M9R       0.046450
     41 H6          17.8370    14.3870   -26.7560 h1         1 M9R       0.046450
     42 H7          18.3650    14.0580   -29.7410 h1         1 M9R       0.050700
     43 H8          17.4030    13.0090   -28.7080 h1         1 M9R       0.050700
     44 H9          21.4230    13.0680   -27.6960 h1         1 M9R       0.050700
     45 H10         20.2030    13.4530   -26.4830 h1         1 M9R       0.050700
     46 H11         21.2850    15.4490   -27.2830 h1         1 M9R       0.046450
     47 H12         20.8840    15.0930   -28.9600 h1         1 M9R       0.046450
     48 H13         20.1390    11.3030   -26.2920 ha         1 M9R       0.095000
     49 H14         19.8430     8.8940   -26.1340 ha         1 M9R       0.133000
     50 H16         18.2730     8.8060   -30.1000 ha         1 M9R       0.139000
     51 H17         17.6490    11.4490   -30.9060 hn         1 M9R       0.145000
     52 H18         21.3380    14.0120   -31.1480 ha         1 M9R       0.133500
     53 H19         23.7530    13.8110   -30.6750 ha         1 M9R       0.128000
     54 H20         23.3410     9.5560   -30.4060 ha         1 M9R       0.128000
     55 H21         20.9280     9.7550   -30.8440 ha         1 M9R       0.133500
@<TRIPOS>BOND
     1     1     2 1   
     2     2     3 1   
     3     2     4 1   
     4     2     5 1   
     5     5     6 ar  
     6     5     9 ar  
     7     6     7 ar  
     8     6    36 1   
     9     7     8 ar  
    10     7    37 1   
    11     8    10 ar  
    12     8    38 1   
    13     9    10 ar  
    14     9    39 1   
    15    10    11 1   
    16    11    12 1   
    17    11    16 1   
    18    12    13 1   
    19    12    40 1   
    20    12    41 1   
    21    13    14 1   
    22    13    42 1   
    23    13    43 1   
    24    14    15 1   
    25    14    17 1   
    26    15    16 1   
    27    15    44 1   
    28    15    45 1   
    29    16    46 1   
    30    16    47 1   
    31    17    18 ar  
    32    17    25 ar  
    33    18    19 ar  
    34    18    48 1   
    35    19    20 ar  
    36    19    49 1   
    37    20    21 1   
    38    20    24 ar  
    39    21    22 1   
    40    21    23 1   
    41    24    25 ar  
    42    24    50 1   
    43    25    26 1   
    44    26    27 1   
    45    26    51 1   
    46    27    28 2   
    47    27    29 1   
    48    29    30 ar  
    49    29    35 ar  
    50    30    31 ar  
    51    30    52 1   
    52    31    32 ar  
    53    31    53 1   
    54    32    33 1   
    55    32    34 ar  
    56    34    35 ar  
    57    34    54 1   
    58    35    55 1   
@<TRIPOS>SUBSTRUCTURE
     1 M9R         1 TEMP              0 ****  ****    0 ROOT
