@<TRIPOS>MOLECULE
M9S
   65    70     1     0     0
SMALL
No Charge or Current Charge


@<TRIPOS>ATOM
      1 N            4.5990    -1.3120    -0.1110 n3         1 M9S      -0.819600
      2 C            4.3340    -1.8020    -1.4980 c5         1 M9S       0.208800
      3 C1           4.1540    -3.3420    -1.3410 c5         1 M9S      -0.092400
      4 C10         -2.9650    -0.2000    -0.7820 ca         1 M9S      -0.132000
      5 C11         -3.6770     0.9980    -0.6310 ca         1 M9S      -0.036200
      6 C12         -6.0150     0.2050    -1.0980 c3         1 M9S       0.081600
      7 C13         -6.4480    -0.7100     0.0770 c5         1 M9S       0.116500
      8 C14         -7.3760    -1.8710    -0.3430 c5         1 M9S      -0.111400
      9 C15         -7.8660    -2.3870     1.0390 c5         1 M9S      -0.113400
     10 C16         -7.7580    -1.1350     1.9610 c5         1 M9S       0.131800
     11 C17         -5.3090     2.6180    -0.5030 cc         1 M9S      -0.145100
     12 C18         -4.0610     3.1690    -0.2410 cd         1 M9S      -0.232200
     13 C19         -3.0340     2.1610    -0.3190 ca         1 M9S      -0.104800
     14 C2           4.5900    -3.6110     0.1220 c5         1 M9S      -0.092400
     15 C20         -1.6480     2.2320    -0.1350 ca         1 M9S      -0.008000
     16 C21          5.2880     0.9990    -0.8120 c6         1 M9S      -0.065400
     17 C22          6.8120     0.7200    -0.6860 c6         1 M9S      -0.068400
     18 C23          7.3100     0.9810     0.7560 c6         1 M9S      -0.071400
     19 C24          6.4830     0.1790     1.7910 c6         1 M9S      -0.068400
     20 C25          4.9650     0.4680     1.6370 c6         1 M9S      -0.065400
     21 C3           4.0600    -2.3410     0.8150 c5         1 M9S       0.208800
     22 C4           4.4320     0.1530     0.1950 c6         1 M9S       0.334500
     23 C5           2.9730     0.6160     0.1070 cc         1 M9S      -0.260300
     24 C6           2.5900     1.9250     0.3230 cd         1 M9S       0.274900
     25 C7           0.5750     1.0740    -0.0930 cc         1 M9S       0.502900
     26 C8          -0.8870     1.0420    -0.2790 ca         1 M9S      -0.174500
     27 C9          -1.5650    -0.1710    -0.6040 ca         1 M9S      -0.082000
     28 N1           1.2330     2.1860     0.2090 nd         1 M9S      -0.654000
     29 N2          -5.0410     1.2550    -0.7460 na         1 M9S      -0.080700
     30 N3          -7.3010    -0.0340     1.0810 n7         1 M9S      -0.811400
     31 S            1.5640    -0.3560    -0.2540 ss         1 M9S      -0.044400
     32 H2           3.4410    -1.3510    -1.9500 h1         1 M9S       0.035700
     33 H3           5.1810    -1.5730    -2.1580 h1         1 M9S       0.035700
     34 H4           3.1060    -3.6220    -1.4960 hc         1 M9S       0.048200
     35 H5           4.7510    -3.9060    -2.0660 hc         1 M9S       0.048200
     36 H6          -3.4690    -1.1320    -1.0290 ha         1 M9S       0.112000
     37 H7          -5.5750    -0.4190    -1.8850 h1         1 M9S       0.058700
     38 H8          -6.9040     0.6840    -1.5270 h1         1 M9S       0.058700
     39 H9          -5.5350    -1.1060     0.5500 h1         1 M9S       0.082700
     40 H10         -8.2140    -1.5170    -0.9570 hc         1 M9S       0.047700
     41 H11         -6.8520    -2.6430    -0.9170 hc         1 M9S       0.047700
     42 H12         -8.8890    -2.7770     0.9890 hc         1 M9S       0.049200
     43 H13         -7.2300    -3.1980     1.4130 hc         1 M9S       0.049200
     44 H14         -8.7140    -0.8920     2.4470 h1         1 M9S       0.058700
     45 H15         -7.0220    -1.3170     2.7580 h1         1 M9S       0.058700
     46 H16         -6.3040     3.0500    -0.5340 h4         1 M9S       0.211000
     47 H17         -3.8910     4.2180    -0.0080 ha         1 M9S       0.208000
     48 H18          4.1520    -4.5280     0.5320 hc         1 M9S       0.048200
     49 H19          5.6790    -3.6910     0.2130 hc         1 M9S       0.048200
     50 H20         -1.1820     3.1840     0.1130 ha         1 M9S       0.138000
     51 H21          5.1270     2.0710    -0.6360 hc         1 M9S       0.043950
     52 H22          4.9590     0.8230    -1.8440 hc         1 M9S       0.043950
     53 H23          7.0320    -0.3180    -0.9720 hc         1 M9S       0.042700
     54 H24          7.3650     1.3570    -1.3900 hc         1 M9S       0.042700
     55 H25          8.3720     0.7140     0.8390 hc         1 M9S       0.035700
     56 H26          7.2400     2.0540     0.9810 hc         1 M9S       0.035700
     57 H27          6.6780    -0.8960     1.6710 hc         1 M9S       0.042700
     58 H28          6.8090     0.4390     2.8070 hc         1 M9S       0.042700
     59 H29          4.3960    -0.0880     2.3920 hc         1 M9S       0.043950
     60 H30          4.7980     1.5270     1.8730 hc         1 M9S       0.043950
     61 H31          4.4570    -2.2520     1.8350 h1         1 M9S       0.035700
     62 H32          2.9640    -2.3440     0.8700 h1         1 M9S       0.035700
     63 H33          3.2540     2.7440     0.5700 h4         1 M9S       0.038100
     64 H34         -1.0170    -1.1020    -0.7220 ha         1 M9S       0.110000
     65 H35         -8.1190     0.3470     0.5930 hn         1 M9S       0.392000
@<TRIPOS>BOND
     1     1     2 1   
     2     1    21 1   
     3     1    22 1   
     4     2     3 1   
     5     2    32 1   
     6     2    33 1   
     7     3    14 1   
     8     3    34 1   
     9     3    35 1   
    10     4     5 ar  
    11     4    27 ar  
    12     4    36 1   
    13     5    13 ar  
    14     5    29 1   
    15     6     7 1   
    16     6    29 1   
    17     6    37 1   
    18     6    38 1   
    19     7     8 1   
    20     7    30 1   
    21     7    39 1   
    22     8     9 1   
    23     8    40 1   
    24     8    41 1   
    25     9    10 1   
    26     9    42 1   
    27     9    43 1   
    28    10    30 1   
    29    10    44 1   
    30    10    45 1   
    31    11    12 2   
    32    11    29 1   
    33    11    46 1   
    34    12    13 1   
    35    12    47 1   
    36    13    15 ar  
    37    14    21 1   
    38    14    48 1   
    39    14    49 1   
    40    15    26 ar  
    41    15    50 1   
    42    16    17 1   
    43    16    22 1   
    44    16    51 1   
    45    16    52 1   
    46    17    18 1   
    47    17    53 1   
    48    17    54 1   
    49    18    19 1   
    50    18    55 1   
    51    18    56 1   
    52    19    20 1   
    53    19    57 1   
    54    19    58 1   
    55    20    22 1   
    56    20    59 1   
    57    20    60 1   
    58    21    61 1   
    59    21    62 1   
    60    22    23 1   
    61    23    24 2   
    62    23    31 1   
    63    24    28 1   
    64    24    63 1   
    65    25    26 1   
    66    25    28 2   
    67    25    31 1   
    68    26    27 ar  
    69    27    64 1   
    70    30    65 1   
@<TRIPOS>SUBSTRUCTURE
     1 M9S         1 TEMP              0 ****  ****    0 ROOT
