@<TRIPOS>MOLECULE
M9S
   65    70     1     0     0
SMALL
abcg2


@<TRIPOS>ATOM
      1 N            4.5990    -1.1630    -0.1970 n3         1 M9S      -0.819600
      2 C            4.3830    -1.5040    -1.5990 c5         1 M9S       0.208800
      3 C1           3.8580    -2.9400    -1.5740 c5         1 M9S      -0.092400
      4 C10         -2.7720    -0.4440    -0.7260 ca         1 M9S      -0.132000
      5 C11         -3.5590     0.7050    -0.6550 ca         1 M9S      -0.036200
      6 C12         -5.8540    -0.1940    -1.0610 c3         1 M9S       0.081600
      7 C13         -6.3810    -0.8210     0.2180 c5         1 M9S       0.116500
      8 C14         -7.2850    -2.0430    -0.0390 c5         1 M9S      -0.111400
      9 C15         -8.3060    -2.0060     1.1150 c5         1 M9S      -0.113400
     10 C16         -7.9190    -0.7470     1.9170 c5         1 M9S       0.131800
     11 C17         -5.2080     2.1900    -0.6480 cc         1 M9S      -0.145100
     12 C18         -4.0810     2.9060    -0.3740 cd         1 M9S      -0.232200
     13 C19         -2.9990     1.9720    -0.3730 ca         1 M9S      -0.104800
     14 C2           4.3610    -3.4770    -0.2380 c5         1 M9S      -0.092400
     15 C20         -1.6240     2.0840    -0.1760 ca         1 M9S      -0.008000
     16 C21          5.3660     1.1020    -0.6620 c6         1 M9S      -0.065400
     17 C22          6.8440     0.7600    -0.5190 c6         1 M9S      -0.068400
     18 C23          7.2970     0.8840     0.9300 c6         1 M9S      -0.071400
     19 C24          6.4300     0.0300     1.8470 c6         1 M9S      -0.068400
     20 C25          4.9500     0.3630     1.6810 c6         1 M9S      -0.065400
     21 C3           4.2300    -2.2670     0.6740 c5         1 M9S       0.208800
     22 C4           4.4680     0.2130     0.2250 c6         1 M9S       0.334500
     23 C5           3.0400     0.7370     0.1350 cc         1 M9S      -0.260300
     24 C6           2.5820     2.0140     0.2520 cd         1 M9S       0.274900
     25 C7           0.6170     1.0740    -0.0690 cc         1 M9S       0.502900
     26 C8          -0.8280     0.9480    -0.2550 ca         1 M9S      -0.174500
     27 C9          -1.4160    -0.3060    -0.5260 ca         1 M9S      -0.082000
     28 N1           1.2370     2.1960     0.1390 nd         1 M9S      -0.654000
     29 N2          -4.9020     0.8680    -0.8300 na         1 M9S      -0.080700
     30 N3          -7.1670     0.1150     1.0130 n7         1 M9S      -0.811400
     31 S            1.6820    -0.2910    -0.1280 ss         1 M9S      -0.044400
     32 H2           3.6710    -0.8370    -2.0960 h1         1 M9S       0.035700
     33 H3           5.3190    -1.4400    -2.1680 h1         1 M9S       0.035700
     34 H4           2.7660    -2.9420    -1.5850 hc         1 M9S       0.048200
     35 H5           4.1960    -3.5220    -2.4310 hc         1 M9S       0.048200
     36 H6          -3.1950    -1.4180    -0.9370 ha         1 M9S       0.112000
     37 H7          -5.3770    -0.9580    -1.6770 h1         1 M9S       0.058700
     38 H8          -6.6830     0.2070    -1.6510 h1         1 M9S       0.058700
     39 H9          -5.5260    -1.1390     0.8270 h1         1 M9S       0.082700
     40 H10         -7.7870    -1.9500    -1.0060 hc         1 M9S       0.047700
     41 H11         -6.7090    -2.9690    -0.0680 hc         1 M9S       0.047700
     42 H12         -9.3210    -1.9180     0.7280 hc         1 M9S       0.049200
     43 H13         -8.2750    -2.9050     1.7300 hc         1 M9S       0.049200
     44 H14         -8.7780    -0.2160     2.3270 h1         1 M9S       0.058700
     45 H15         -7.2760    -1.0210     2.7580 h1         1 M9S       0.058700
     46 H16         -6.2290     2.5270    -0.7410 h4         1 M9S       0.211000
     47 H17         -4.0260     3.9690    -0.2040 ha         1 M9S       0.208000
     48 H18          3.7950    -4.3360     0.1230 hc         1 M9S       0.048200
     49 H19          5.4090    -3.7760    -0.3150 hc         1 M9S       0.048200
     50 H20         -1.1750     3.0460     0.0340 ha         1 M9S       0.138000
     51 H21          5.2140     2.1450    -0.3730 hc         1 M9S       0.043950
     52 H22          5.0510     1.0280    -1.7060 hc         1 M9S       0.043950
     53 H23          7.0250    -0.2580    -0.8760 hc         1 M9S       0.042700
     54 H24          7.4290     1.4260    -1.1590 hc         1 M9S       0.042700
     55 H25          8.3470     0.5960     1.0270 hc         1 M9S       0.035700
     56 H26          7.2320     1.9330     1.2400 hc         1 M9S       0.035700
     57 H27          6.6000    -1.0260     1.6240 hc         1 M9S       0.042700
     58 H28          6.7160     0.1800     2.8910 hc         1 M9S       0.042700
     59 H29          4.3370    -0.2500     2.3460 hc         1 M9S       0.043950
     60 H30          4.7790     1.3990     1.9890 hc         1 M9S       0.043950
     61 H31          4.8970    -2.3370     1.5360 h1         1 M9S       0.035700
     62 H32          3.2060    -2.2050     1.0730 h1         1 M9S       0.035700
     63 H33          3.2120     2.8770     0.4220 h4         1 M9S       0.038100
     64 H34         -0.7990    -1.1940    -0.5860 ha         1 M9S       0.110000
     65 H35         -7.8300     0.5750     0.3950 hn         1 M9S       0.392000
@<TRIPOS>BOND
     1     1     2 1   
     2     1    21 1   
     3     1    22 1   
     4     2     3 1   
     5     2    32 1   
     6     2    33 1   
     7     3    14 1   
     8     3    34 1   
     9     3    35 1   
    10     4     5 ar  
    11     4    27 ar  
    12     4    36 1   
    13     5    13 ar  
    14     5    29 1   
    15     6     7 1   
    16     6    29 1   
    17     6    37 1   
    18     6    38 1   
    19     7     8 1   
    20     7    30 1   
    21     7    39 1   
    22     8     9 1   
    23     8    40 1   
    24     8    41 1   
    25     9    10 1   
    26     9    42 1   
    27     9    43 1   
    28    10    30 1   
    29    10    44 1   
    30    10    45 1   
    31    11    12 2   
    32    11    29 1   
    33    11    46 1   
    34    12    13 1   
    35    12    47 1   
    36    13    15 ar  
    37    14    21 1   
    38    14    48 1   
    39    14    49 1   
    40    15    26 ar  
    41    15    50 1   
    42    16    17 1   
    43    16    22 1   
    44    16    51 1   
    45    16    52 1   
    46    17    18 1   
    47    17    53 1   
    48    17    54 1   
    49    18    19 1   
    50    18    55 1   
    51    18    56 1   
    52    19    20 1   
    53    19    57 1   
    54    19    58 1   
    55    20    22 1   
    56    20    59 1   
    57    20    60 1   
    58    21    61 1   
    59    21    62 1   
    60    22    23 1   
    61    23    24 2   
    62    23    31 1   
    63    24    28 1   
    64    24    63 1   
    65    25    26 1   
    66    25    28 2   
    67    25    31 1   
    68    26    27 ar  
    69    27    64 1   
    70    30    65 1   
@<TRIPOS>SUBSTRUCTURE
     1 M9S         1 TEMP              0 ****  ****    0 ROOT
