@<TRIPOS>MOLECULE
M9U
   37    40     1     0     0
SMALL
No Charge or Current Charge


@<TRIPOS>ATOM
      1 N1           6.8500    -0.9410    17.8170 nc         1 M9U      -0.343000
      2 N3           6.1080     0.7810    18.9520 na         1 M9U      -0.356000
      3 C4          11.0430    -0.4880    22.4750 c6         1 M9U       0.156600
      4 C5          10.1130    -1.6150    21.9800 c6         1 M9U      -0.096400
      5 C6           8.6380    -1.2300    22.2570 c6         1 M9U      -0.077400
      6 C7           8.0780    -0.2770    21.1710 c          1 M9U       0.615100
      7 C8           6.8850    -0.3540    19.0020 cd         1 M9U       0.493400
      8 C10          5.4170     1.3780    20.1120 cx         1 M9U      -0.004700
      9 C13          8.4600    -0.6570    23.6700 ca         1 M9U      -0.161300
     10 O1           8.1010     0.9360    21.3040 o          1 M9U      -0.563100
     11 O           10.8570    -0.2580    23.8890 os         1 M9U      -0.345100
     12 C3           9.5780    -0.1960    24.4070 ca         1 M9U       0.166100
     13 C2           9.4040     0.3070    25.7060 ca         1 M9U      -0.136000
     14 C1           8.1190     0.3750    26.2730 ca         1 M9U      -0.061000
     15 C14          7.1750    -0.5870    24.2440 ca         1 M9U      -0.068000
     16 C            7.0070    -0.0700    25.5400 ca         1 M9U       0.079000
     17 Cl           5.3990     0.0160    26.2470 cl         1 M9U      -0.210000
     18 N            7.5350    -0.9030    20.0750 ns         1 M9U      -0.495400
     19 C9           5.5780     0.8390    17.6860 cd         1 M9U       0.394400
     20 N2           6.0490    -0.1810    16.9800 nc         1 M9U      -0.359000
     21 C12          4.3050     2.4040    20.0630 cx         1 M9U      -0.121900
     22 C11          5.6510     2.7790    20.6280 cx         1 M9U      -0.121900
     23 H2          10.8260     0.4430    21.9330 h1         1 M9U       0.075200
     24 H3          10.3640    -2.5440    22.5110 hc         1 M9U       0.068700
     25 H4          10.2790    -1.8080    20.9110 hc         1 M9U       0.068700
     26 H5           8.0830    -2.1740    22.1560 hc         1 M9U       0.072700
     27 H6           5.3050     0.5870    20.8560 h1         1 M9U       0.099700
     28 H7          10.2680     0.6490    26.2720 ha         1 M9U       0.138000
     29 H8           7.9850     0.7700    27.2780 ha         1 M9U       0.135000
     30 H9           6.3060    -0.9340    23.6890 ha         1 M9U       0.120000
     31 H10          7.7320    -1.8920    20.0240 hn         1 M9U       0.338500
     32 H11          4.8660     1.5880    17.3630 h5         1 M9U       0.066100
     33 H12          4.0290     2.8390    19.1060 hc         1 M9U       0.089700
     34 H13          3.4790     2.2840    20.7590 hc         1 M9U       0.089700
     35 H14          6.2870     3.4340    20.0380 hc         1 M9U       0.089700
     36 H15          5.7380     2.9090    21.7040 hc         1 M9U       0.089700
     37 H1          12.0950    -0.7480    22.2910 h1         1 M9U       0.075200
@<TRIPOS>BOND
     1     1     7 2   
     2     1    20 1   
     3     2     7 1   
     4     2     8 1   
     5     2    19 1   
     6     3     4 1   
     7     3    11 1   
     8     3    23 1   
     9     3    37 1   
    10     4     5 1   
    11     4    24 1   
    12     4    25 1   
    13     5     6 1   
    14     5     9 1   
    15     5    26 1   
    16     6    10 2   
    17     6    18 1   
    18     7    18 1   
    19     8    21 1   
    20     8    22 1   
    21     8    27 1   
    22     9    12 ar  
    23     9    15 ar  
    24    11    12 1   
    25    12    13 ar  
    26    13    14 ar  
    27    13    28 1   
    28    14    16 ar  
    29    14    29 1   
    30    15    16 ar  
    31    15    30 1   
    32    16    17 1   
    33    18    31 1   
    34    19    20 2   
    35    19    32 1   
    36    21    22 1   
    37    21    33 1   
    38    21    34 1   
    39    22    35 1   
    40    22    36 1   
@<TRIPOS>SUBSTRUCTURE
     1 M9U         1 TEMP              0 ****  ****    0 ROOT
