@<TRIPOS>MOLECULE
M9U
   37    40     1     0     0
SMALL
abcg2


@<TRIPOS>ATOM
      1 N1           6.5110    -0.7640    17.9340 nc         1 M9U      -0.343000
      2 N3           5.7590     0.5810    19.5050 na         1 M9U      -0.356000
      3 C4          11.0410    -0.0850    22.4930 c6         1 M9U       0.156600
      4 C5          10.4880    -1.4210    22.0380 c6         1 M9U      -0.096400
      5 C6           8.9610    -1.3920    21.9420 c6         1 M9U      -0.077400
      6 C7           8.4620    -0.6770    20.6870 c          1 M9U       0.615100
      7 C8           6.5610    -0.4900    19.2110 cd         1 M9U       0.493400
      8 C10          5.4930     1.1290    20.8130 cx         1 M9U      -0.004700
      9 C13          8.3670    -0.6860    23.1490 ca         1 M9U      -0.161300
     10 O1           9.0160     0.2900    20.1910 o          1 M9U      -0.563100
     11 O           10.4930     0.3210    23.7620 os         1 M9U      -0.345100
     12 C3           9.1610     0.1400    23.9540 ca         1 M9U       0.166100
     13 C2           8.5980     0.8040    25.0480 ca         1 M9U      -0.136000
     14 C1           7.2530     0.6650    25.3450 ca         1 M9U      -0.061000
     15 C14          7.0180    -0.8360    23.4700 ca         1 M9U      -0.068000
     16 C            6.4710    -0.1610    24.5450 ca         1 M9U       0.079000
     17 CL           4.7620    -0.3390    24.8930 cl         1 M9U      -0.210000
     18 N            7.2910    -1.1730    20.1810 ns         1 M9U      -0.495400
     19 C9           5.2140     0.9320    18.3110 cd         1 M9U       0.394400
     20 N2           5.6490     0.1460    17.3560 nc         1 M9U      -0.359000
     21 C12          5.1940     2.5910    20.9390 cx         1 M9U      -0.121900
     22 C11          6.4980     2.0430    21.4490 cx         1 M9U      -0.121900
     23 H2          10.8200     0.6920    21.7620 h1         1 M9U       0.075200
     24 H3          10.7740    -2.1940    22.7530 hc         1 M9U       0.068700
     25 H4          10.9290    -1.6790    21.0750 hc         1 M9U       0.068700
     26 H5           8.5820    -2.4150    21.9200 hc         1 M9U       0.072700
     27 H6           4.9580     0.4400    21.4510 h1         1 M9U       0.099700
     28 H7           9.2320     1.4360    25.6550 ha         1 M9U       0.138000
     29 H8           6.8190     1.1910    26.1830 ha         1 M9U       0.135000
     30 H9           6.3890    -1.4770    22.8690 ha         1 M9U       0.120000
     31 H10          6.9020    -2.0250    20.5580 hn         1 M9U       0.338500
     32 H11          4.5230     1.7500    18.1920 h5         1 M9U       0.066100
     33 H12          5.2250     3.1930    20.0420 hc         1 M9U       0.089700
     34 H13          4.4290     2.8690    21.6510 hc         1 M9U       0.089700
     35 H14          7.3880     2.2610    20.8770 hc         1 M9U       0.089700
     36 H15          6.6450     1.9380    22.5140 hc         1 M9U       0.089700
     37 H1          12.1160    -0.1370    22.6530 h1         1 M9U       0.075200
@<TRIPOS>BOND
     1     1     7 2   
     2     1    20 1   
     3     2     7 1   
     4     2     8 1   
     5     2    19 1   
     6     3     4 1   
     7     3    11 1   
     8     3    23 1   
     9     3    37 1   
    10     4     5 1   
    11     4    24 1   
    12     4    25 1   
    13     5     6 1   
    14     5     9 1   
    15     5    26 1   
    16     6    10 2   
    17     6    18 1   
    18     7    18 1   
    19     8    21 1   
    20     8    22 1   
    21     8    27 1   
    22     9    12 ar  
    23     9    15 ar  
    24    11    12 1   
    25    12    13 ar  
    26    13    14 ar  
    27    13    28 1   
    28    14    16 ar  
    29    14    29 1   
    30    15    16 ar  
    31    15    30 1   
    32    16    17 1   
    33    18    31 1   
    34    19    20 2   
    35    19    32 1   
    36    21    22 1   
    37    21    33 1   
    38    21    34 1   
    39    22    35 1   
    40    22    36 1   
@<TRIPOS>SUBSTRUCTURE
     1 M9U         1 TEMP              0 ****  ****    0 ROOT
