@<TRIPOS>MOLECULE
M9W
   39    39     1     0     0
SMALL
abcg2


@<TRIPOS>ATOM
      1 C02        -16.2880    12.9180    25.0840 c2         1 M9W       0.246000
      2 C09        -16.3390    14.3400    25.2120 c2         1 M9W      -0.466000
      3 C10        -15.2000    15.0970    25.1340 c2         1 M9W       0.112000
      4 C12        -13.9170    17.1990    25.1000 c3         1 M9W      -0.046000
      5 C13        -14.2160    18.4960    24.3070 c2         1 M9W       0.339000
      6 C16        -13.2440    17.5060    26.4620 c3         1 M9W      -0.601000
      7 C17        -12.8470    16.2000    27.1310 c3         1 M9W      -0.201000
      8 C18        -14.2230    18.3130    27.3160 c3         1 M9W       0.011000
      9 C23        -12.6930    19.1600    30.4430 c2         1 M9W      -0.118000
     10 C24        -13.4180    18.2700    29.7100 c2         1 M9W      -0.100000
     11 N11        -15.1260    16.4160    25.2300 n7         1 M9W      -0.292000
     12 N19        -13.5980    18.8660    28.5150 na         1 M9W      -0.010000
     13 N20        -13.0500    20.0390    28.4650 n2         1 M9W       0.072000
     14 N21        -12.5050    20.2140    29.6250 na         1 M9W      -0.035000
     15 O01        -15.2910    12.2310    24.8890 o          1 M9W      -0.365000
     16 O14        -13.1980    19.1250    23.9530 o          1 M9W      -0.527000
     17 O15        -15.4040    18.8000    24.1240 o          1 M9W      -0.527000
     18 S25        -11.6890    18.7060    26.0460 s6         1 M9W       1.560000
     19 H1         -17.2760    12.4290    25.1780 h4         1 M9W       0.058000
     20 H2         -17.3030    14.8060    25.3810 ha         1 M9W       0.129000
     21 H3         -14.2510    14.5920    24.9760 h4         1 M9W       0.138000
     22 H4         -13.2000    16.6070    24.5210 h1         1 M9W       0.099000
     23 H5         -12.4250    16.3250    28.1290 hc         1 M9W       0.066333
     24 H6         -13.7030    15.5340    27.2650 hc         1 M9W       0.066333
     25 H7         -12.1120    15.6610    26.5270 hc         1 M9W       0.066333
     26 H8         -14.6330    19.1640    26.7740 h1         1 M9W       0.140500
     27 H9         -15.0600    17.7020    27.6570 h1         1 M9W       0.140500
     28 H10        -11.8600    22.0940    29.0510 h1         1 M9W       0.134667
     29 H11        -12.2370    21.9240    30.7810 h1         1 M9W       0.134667
     30 H12        -10.7460    21.2100    30.1200 h1         1 M9W       0.134667
     31 H13        -12.3200    19.1230    31.4520 h4         1 M9W       0.222000
     32 H14        -13.8110    17.2980    29.9520 h4         1 M9W       0.231000
     33 H15        -15.9820    16.9540    25.2670 hn         1 M9W       0.246000
     34 H17        -10.7950    17.3370    27.5240 ho         1 M9W       0.213500
     35 H18         -9.3820    19.0750    25.5270 ho         1 M9W       0.213500
     36 H19        -11.3240    17.7810    25.1440 hs         1 M9W      -0.130000
     37 O26        -10.9240    18.2940    27.4540 oh         1 M9W      -0.640000
     38 C22        -11.7870    21.4450    29.9160 c3         1 M9W      -0.079000
     39 O27        -10.1650    19.6400    25.5400 oh         1 M9W      -0.640000
@<TRIPOS>BOND
     1     1     2 1   
     2     1    15 1   
     3     1    19 1   
     4     2     3 1   
     5     2    20 1   
     6     3    11 1   
     7     3    21 1   
     8     4     5 1   
     9     4     6 1   
    10     4    11 1   
    11     4    22 1   
    12     5    16 1   
    13     5    17 1   
    14     6     7 1   
    15     6     8 1   
    16     6    18 1   
    17     7    23 1   
    18     7    24 1   
    19     7    25 1   
    20     8    12 1   
    21     8    26 1   
    22     8    27 1   
    23     9    10 1   
    24     9    14 1   
    25     9    31 1   
    26    10    12 1   
    27    10    32 1   
    28    11    33 1   
    29    12    13 1   
    30    13    14 1   
    31    14    38 1   
    32    18    36 1   
    33    18    37 1   
    34    18    39 1   
    35    28    38 1   
    36    29    38 1   
    37    30    38 1   
    38    34    37 1   
    39    35    39 1   
@<TRIPOS>SUBSTRUCTURE
     1 M9W         1 TEMP              0 ****  ****    0 ROOT
