@<TRIPOS>MOLECULE
M9W
   39    39     1     0     0
SMALL
No Charge or Current Charge


@<TRIPOS>ATOM
      1 C02        -16.0550    13.2100    26.0100 c          1 M9W       0.246000
      2 C09        -16.0600    14.5320    25.7880 c2         1 M9W      -0.466000
      3 C10        -15.0590    15.1980    25.1910 c2         1 M9W       0.112000
      4 C12        -13.8710    17.3790    24.6820 c3         1 M9W      -0.046000
      5 C13        -14.2530    18.6060    23.8280 c          1 M9W       0.339000
      6 C16        -13.0520    17.7240    26.0010 c3         1 M9W      -0.601000
      7 C17        -12.5480    16.3980    26.6880 c3         1 M9W      -0.201000
      8 C18        -13.9720    18.5340    27.0020 c3         1 M9W       0.011000
      9 C23        -12.9800    18.7450    30.4430 c2         1 M9W      -0.118000
     10 C24        -13.3690    18.0280    29.4000 c2         1 M9W      -0.100000
     11 N11        -15.0980    16.6030    24.9740 n7         1 M9W      -0.292000
     12 N19        -13.3730    18.9090    28.3000 na         1 M9W      -0.010000
     13 N20        -13.0300    20.2210    28.6030 n2         1 M9W       0.072000
     14 N21        -12.7710    20.0460    29.9550 na         1 M9W      -0.035000
     15 O01        -15.1810    12.3990    25.7230 o          1 M9W      -0.365000
     16 O14        -13.5510    18.9410    22.8820 o          1 M9W      -0.527000
     17 O15        -15.2120    19.3130    24.1160 o          1 M9W      -0.527000
     18 S25        -11.5960    18.7860    25.4630 s6         1 M9W       1.560000
     19 H1         -16.9280    12.7870    26.5060 h4         1 M9W       0.058000
     20 H2         -16.9320    15.0950    26.1170 ha         1 M9W       0.129000
     21 H3         -14.1630    14.6820    24.8440 h4         1 M9W       0.138000
     22 H4         -13.2290    16.7570    24.0410 h1         1 M9W       0.099000
     23 H5         -11.8250    16.6090    27.4860 hc         1 M9W       0.066333
     24 H6         -13.3720    15.8330    27.1390 hc         1 M9W       0.066333
     25 H7         -12.0460    15.7420    25.9650 hc         1 M9W       0.066333
     26 H8         -14.3410    19.4550    26.5270 h1         1 M9W       0.140500
     27 H9         -14.8680    17.9430    27.2330 h1         1 M9W       0.140500
     28 H10        -12.1990    22.0630    30.2430 h1         1 M9W       0.134667
     29 H11        -13.1220    21.3360    31.5880 h1         1 M9W       0.134667
     30 H12        -11.4100    20.8880    31.3310 h1         1 M9W       0.134667
     31 H13        -12.8320    18.4870    31.4930 h4         1 M9W       0.222000
     32 H14        -13.6510    16.9800    29.3000 h4         1 M9W       0.231000
     33 H15        -15.7570    17.1860    25.4880 hn         1 M9W       0.246000
     34 H17        -10.5410    18.3920    27.1940 ho         1 M9W       0.213500
     35 H18        -10.4440    17.1170    25.0720 ho         1 M9W       0.213500
     36 H19        -11.2530    17.6670    26.1690 hs         1 M9W      -0.130000
     37 O26        -10.6760    19.2360    26.7330 oh         1 M9W      -0.640000
     38 C22        -12.3500    21.1490    30.8310 c3         1 M9W      -0.079000
     39 O27        -10.5730    17.9150    24.5350 oh         1 M9W      -0.640000
@<TRIPOS>BOND
     1     1     2 1   
     2     1    15 1   
     3     1    19 1   
     4     2     3 1   
     5     2    20 1   
     6     3    11 1   
     7     3    21 1   
     8     4     5 1   
     9     4     6 1   
    10     4    11 1   
    11     4    22 1   
    12     5    16 1   
    13     5    17 1   
    14     6     7 1   
    15     6     8 1   
    16     6    18 1   
    17     7    23 1   
    18     7    24 1   
    19     7    25 1   
    20     8    12 1   
    21     8    26 1   
    22     8    27 1   
    23     9    10 1   
    24     9    14 1   
    25     9    31 1   
    26    10    12 1   
    27    10    32 1   
    28    11    33 1   
    29    12    13 1   
    30    13    14 1   
    31    14    38 1   
    32    18    36 1   
    33    18    37 1   
    34    18    39 1   
    35    28    38 1   
    36    29    38 1   
    37    30    38 1   
    38    34    37 1   
    39    35    39 1   
@<TRIPOS>SUBSTRUCTURE
     1 M9W         1 TEMP              0 ****  ****    0 ROOT
