@<TRIPOS>MOLECULE
M9X
   78    81     1     0     0
SMALL
abcg2


@<TRIPOS>ATOM
      1 N1          -7.6590     1.2810    19.2060 ns         1 M9X      -0.399100
      2 N3          -7.1720     1.3630    24.2160 ns         1 M9X      -0.490900
      3 C4          -7.5070    -0.5920    15.4180 c3         1 M9X      -0.111433
      4 C5          -8.0260     0.4000    18.2260 c          1 M9X       0.655100
      5 C6          -8.4950     2.0090    20.0450 cc         1 M9X      -0.044600
      6 C7          -7.7960     2.5230    21.2060 c          1 M9X       0.526200
      7 C8          -9.9190     3.3690    21.9830 cc         1 M9X      -0.062400
      8 C10         -9.8370     2.2200    19.8820 cd         1 M9X      -0.143000
      9 C13         -8.4070     4.8240    24.0520 c3         1 M9X      -0.046400
     10 C15         -7.9240     7.3650    23.7400 cx         1 M9X      -0.126900
     11 C17         -7.2770     0.0240    24.7720 c3         1 M9X       0.118700
     12 C20         -7.8860    -0.8120    22.4370 c5         1 M9X      -0.153700
     13 C21         -9.4080    -0.8150    22.6310 c5         1 M9X      -0.091400
     14 C22         -9.9580    -1.3690    21.3070 c5         1 M9X       0.098000
     15 C24         -6.3100    -1.5640    26.4910 c          1 M9X       0.561100
     16 C26         -8.1420    -4.1990    27.1450 cx         1 M9X      -0.132900
     17 C1          -5.5090    -1.6110    16.5380 c3         1 M9X      -0.111433
     18 C2          -6.9750    -1.2290    16.6950 c3         1 M9X       0.223000
     19 C3          -7.7990    -2.4310    17.1390 c3         1 M9X      -0.111433
     20 O1          -6.9270    -0.2240    17.7800 os         1 M9X      -0.472100
     21 O2          -9.1650     0.2280    17.8350 o          1 M9X      -0.546000
     22 N2          -8.5740     3.1820    22.1430 n          1 M9X      -0.251000
     23 C9         -10.5570     2.9220    20.8710 cd         1 M9X      -0.258000
     24 O3          -6.5760     2.3410    21.3800 o          1 M9X      -0.607000
     25 C11         -7.9160     3.5260    23.4290 c3         1 M9X       0.017700
     26 C12         -8.1280     2.3020    24.3360 c          1 M9X       0.585100
     27 C14         -8.2070     6.0140    23.1460 cx         1 M9X      -0.135700
     28 C16         -6.8360     6.6180    23.0100 cx         1 M9X      -0.126900
     29 O4          -9.1320     2.1920    25.0330 o          1 M9X      -0.596100
     30 C18         -6.3080    -0.1260    25.9590 c3         1 M9X       0.073300
     31 C19         -7.0450    -1.0360    23.6880 c3         1 M9X      -0.075400
     32 N4          -8.8410    -2.1630    20.8080 ns         1 M9X      -0.512900
     33 C23         -7.6520    -1.8740    21.3670 c          1 M9X       0.557000
     34 O5          -6.5660    -2.3580    21.0500 o          1 M9X      -0.557000
     35 O6          -6.7200     0.8110    26.9470 oh         1 M9X      -0.652000
     36 N5          -7.2850    -1.8330    27.3750 ns         1 M9X      -0.477900
     37 C25         -7.4810    -3.1250    27.9620 cx         1 M9X       0.045700
     38 O7          -5.4930    -2.3920    26.0910 o          1 M9X      -0.590100
     39 C27         -8.8870    -3.5350    28.2740 cx         1 M9X      -0.132900
     40 H1          -6.6910     1.2690    19.5010 hn         1 M9X       0.358500
     41 H2          -6.4250     1.5470    23.5590 hn         1 M9X       0.337500
     42 H3          -8.5600    -0.3340    15.5070 hc         1 M9X       0.053144
     43 H4          -6.9390     0.3090    15.1780 hc         1 M9X       0.053144
     44 H5          -7.3890    -1.2990    14.5950 hc         1 M9X       0.053144
     45 H6         -10.4280     3.8820    22.7810 h4         1 M9X       0.219000
     46 H7         -10.3420     1.8280    19.0140 ha         1 M9X       0.224000
     47 H8          -9.4470     4.7390    24.3690 hc         1 M9X       0.067200
     48 H9          -7.8230     4.9620    24.9660 hc         1 M9X       0.067200
     49 H10         -7.8510     7.4310    24.8190 hc         1 M9X       0.073450
     50 H11         -8.3560     8.2340    23.2620 hc         1 M9X       0.073450
     51 H12         -8.2900    -0.0660    25.1650 h1         1 M9X       0.087700
     52 H13         -7.5710     0.1230    21.9700 hc         1 M9X       0.075700
     53 H14         -9.8120     0.1690    22.8580 hc         1 M9X       0.060200
     54 H15         -9.6700    -1.4890    23.4500 hc         1 M9X       0.060200
     55 H16        -10.2040    -0.5710    20.6030 h1         1 M9X       0.051200
     56 H17        -10.8430    -1.9900    21.4470 h1         1 M9X       0.051200
     57 H19         -7.7960    -5.2150    27.2780 hc         1 M9X       0.078950
     58 H20         -5.1180    -2.0150    17.4720 hc         1 M9X       0.053144
     59 H21         -5.4110    -2.3710    15.7620 hc         1 M9X       0.053144
     60 H22         -4.9140    -0.7420    16.2520 hc         1 M9X       0.053144
     61 H23         -7.3950    -2.8440    18.0650 hc         1 M9X       0.053144
     62 H24         -8.8420    -2.1670    17.2900 hc         1 M9X       0.053144
     63 H25         -7.7420    -3.2020    16.3690 hc         1 M9X       0.053144
     64 H26        -11.6170     3.0950    20.7600 ha         1 M9X       0.205000
     65 H27         -6.8610     3.6280    23.1950 h1         1 M9X       0.101700
     66 H28         -8.8130     6.0140    22.2480 hc         1 M9X       0.081700
     67 H29         -6.0400     6.1840    23.6020 hc         1 M9X       0.073450
     68 H30         -6.5300     6.9810    22.0380 hc         1 M9X       0.073450
     69 H31         -5.2900     0.0850    25.6190 h1         1 M9X       0.069700
     70 H32         -7.2770    -2.0160    24.1070 hc         1 M9X       0.075200
     71 H33         -5.9890    -1.0500    23.4080 hc         1 M9X       0.075200
     72 H34         -8.9090    -2.7480    19.9890 hn         1 M9X       0.327500
     73 H35         -6.0100     0.9130    27.5930 ho         1 M9X       0.450000
     74 H36         -7.8350    -1.0530    27.7060 hn         1 M9X       0.335500
     75 H37         -6.7010    -3.4320    28.6490 h1         1 M9X       0.089700
     76 H38         -9.6730    -2.8380    28.0120 hc         1 M9X       0.078950
     77 H39         -9.0560    -4.0940    29.1840 hc         1 M9X       0.078950
     78 H18         -8.4270    -3.9350    26.1350 hc         1 M9X       0.078950
@<TRIPOS>BOND
     1     1     4 1   
     2     1     5 1   
     3     1    40 1   
     4     2    11 1   
     5     2    26 1   
     6     2    41 1   
     7     3    18 1   
     8     3    42 1   
     9     3    43 1   
    10     3    44 1   
    11     4    20 1   
    12     4    21 2   
    13     5     6 1   
    14     5     8 2   
    15     6    22 1   
    16     6    24 2   
    17     7    22 1   
    18     7    23 2   
    19     7    45 1   
    20     8    23 1   
    21     8    46 1   
    22     9    25 1   
    23     9    27 1   
    24     9    47 1   
    25     9    48 1   
    26    10    27 1   
    27    10    28 1   
    28    10    49 1   
    29    10    50 1   
    30    11    30 1   
    31    11    31 1   
    32    11    51 1   
    33    12    13 1   
    34    12    31 1   
    35    12    33 1   
    36    12    52 1   
    37    13    14 1   
    38    13    53 1   
    39    13    54 1   
    40    14    32 1   
    41    14    55 1   
    42    14    56 1   
    43    15    30 1   
    44    15    36 1   
    45    15    38 2   
    46    16    37 1   
    47    16    39 1   
    48    16    57 1   
    49    16    78 1   
    50    17    18 1   
    51    17    58 1   
    52    17    59 1   
    53    17    60 1   
    54    18    19 1   
    55    18    20 1   
    56    19    61 1   
    57    19    62 1   
    58    19    63 1   
    59    22    25 1   
    60    23    64 1   
    61    25    26 1   
    62    25    65 1   
    63    26    29 2   
    64    27    28 1   
    65    27    66 1   
    66    28    67 1   
    67    28    68 1   
    68    30    35 1   
    69    30    69 1   
    70    31    70 1   
    71    31    71 1   
    72    32    33 1   
    73    32    72 1   
    74    33    34 2   
    75    35    73 1   
    76    36    37 1   
    77    36    74 1   
    78    37    39 1   
    79    37    75 1   
    80    39    76 1   
    81    39    77 1   
@<TRIPOS>SUBSTRUCTURE
     1 M9X         1 TEMP              0 ****  ****    0 ROOT
