@<TRIPOS>MOLECULE
M9X
   78    81     1     0     0
SMALL
No Charge or Current Charge


@<TRIPOS>ATOM
      1 N1          -7.6910     1.2570    19.0560 ns         1 M9X      -0.399100
      2 N3          -7.2110     1.0910    23.9850 ns         1 M9X      -0.490900
      3 C4          -7.2530    -0.3480    15.1310 c3         1 M9X      -0.111433
      4 C5          -8.0010     0.4980    17.9590 c          1 M9X       0.655100
      5 C6          -8.5040     2.0000    19.9250 cc         1 M9X      -0.044600
      6 C7          -7.8120     2.4380    21.1720 c          1 M9X       0.526200
      7 C8          -9.9760     3.3530    21.8640 cc         1 M9X      -0.062400
      8 C10         -9.8370     2.2760    19.6820 cd         1 M9X      -0.143000
      9 C13         -8.5310     4.6210    24.2440 c3         1 M9X      -0.046400
     10 C15         -8.1640     7.2390    24.1700 cx         1 M9X      -0.126900
     11 C17         -7.1680    -0.2610    24.5620 c3         1 M9X       0.118700
     12 C20         -7.9770    -1.1510    22.2080 c5         1 M9X      -0.153700
     13 C21         -9.4960    -1.0400    22.5130 c5         1 M9X      -0.091400
     14 C22        -10.1060    -1.3600    21.1200 c5         1 M9X       0.098000
     15 C24         -6.2390    -1.7360    26.4470 c          1 M9X       0.561100
     16 C26         -8.6260    -3.5800    28.0670 cx         1 M9X      -0.132900
     17 C1          -5.3050    -1.4260    16.3400 c3         1 M9X      -0.111433
     18 C2          -6.7950    -1.0350    16.4430 c3         1 M9X       0.223000
     19 C3          -7.6440    -2.2800    16.8090 c3         1 M9X      -0.111433
     20 O1          -6.8380    -0.0860    17.5340 os         1 M9X      -0.472100
     21 O2          -9.1100     0.3550    17.4710 o          1 M9X      -0.546000
     22 N2          -8.6200     3.1120    22.1210 n          1 M9X      -0.251000
     23 C9         -10.5860     2.9790    20.6860 cd         1 M9X      -0.258000
     24 O3          -6.6250     2.1970    21.3800 o          1 M9X      -0.607000
     25 C11         -8.0250     3.3630    23.4780 c3         1 M9X       0.017700
     26 C12         -8.1040     2.0800    24.3440 c          1 M9X       0.585100
     27 C14         -8.3490     5.9190    23.4590 cx         1 M9X      -0.135700
     28 C16         -7.0110     6.6170    23.4140 cx         1 M9X      -0.126900
     29 O4          -8.9120     1.9330    25.2530 o          1 M9X      -0.596100
     30 C18         -6.0650    -0.4020    25.6610 c3         1 M9X       0.073300
     31 C19         -7.0450    -1.3350    23.4420 c3         1 M9X      -0.075400
     32 N4          -9.1690    -2.3760    20.6440 ns         1 M9X      -0.512900
     33 C23         -7.9220    -2.3070    21.2010 c          1 M9X       0.557000
     34 O5          -7.0740    -3.1710    21.0520 o          1 M9X      -0.557000
     35 O6          -6.0500     0.7570    26.5440 oh         1 M9X      -0.652000
     36 N5          -7.0810    -1.6620    27.5370 ns         1 M9X      -0.477900
     37 C25         -7.4010    -2.7640    28.4010 cx         1 M9X       0.045700
     38 O7          -5.6410    -2.7640    26.1570 o          1 M9X      -0.590100
     39 C27         -8.6400    -2.6470    29.2540 cx         1 M9X      -0.132900
     40 H1          -6.7090     1.1890    19.2980 hn         1 M9X       0.358500
     41 H2          -6.6160     1.2990    23.1860 hn         1 M9X       0.337500
     42 H3          -8.3360    -0.1840    15.1100 hc         1 M9X       0.053144
     43 H4          -6.7530     0.6190    15.0030 hc         1 M9X       0.053144
     44 H5          -7.0040    -0.9740    14.2660 hc         1 M9X       0.053144
     45 H6         -10.4960     3.8480    22.6770 h4         1 M9X       0.219000
     46 H7         -10.3310     1.9720    18.7640 ha         1 M9X       0.224000
     47 H8          -9.5820     4.5020    24.5320 hc         1 M9X       0.067200
     48 H9          -7.9780     4.6880    25.1900 hc         1 M9X       0.067200
     49 H10         -8.1170     7.2350    25.2570 hc         1 M9X       0.073450
     50 H11         -8.6380     8.1170    23.7390 hc         1 M9X       0.073450
     51 H12         -8.1350    -0.4360    25.0540 h1         1 M9X       0.087700
     52 H13         -7.6800    -0.2560    21.6570 hc         1 M9X       0.075700
     53 H14         -9.7950    -0.0530    22.8840 hc         1 M9X       0.060200
     54 H15         -9.8100    -1.7840    23.2550 hc         1 M9X       0.060200
     55 H16        -10.1010    -0.4770    20.4650 h1         1 M9X       0.051200
     56 H17        -11.1370    -1.7300    21.1960 h1         1 M9X       0.051200
     57 H19         -8.5870    -4.6490    28.2610 hc         1 M9X       0.078950
     58 H20         -4.9530    -1.8720    17.2790 hc         1 M9X       0.053144
     59 H21         -5.1470    -2.1560    15.5380 hc         1 M9X       0.053144
     60 H22         -4.6850    -0.5470    16.1270 hc         1 M9X       0.053144
     61 H23         -7.3970    -2.6370    17.8150 hc         1 M9X       0.053144
     62 H24         -8.7180    -2.0700    16.7700 hc         1 M9X       0.053144
     63 H25         -7.4480    -3.0960    16.1030 hc         1 M9X       0.053144
     64 H26        -11.6410     3.1970    20.5280 ha         1 M9X       0.205000
     65 H27         -6.9520     3.5450    23.3400 h1         1 M9X       0.101700
     66 H28         -8.9380     5.9440    22.5450 hc         1 M9X       0.081700
     67 H29         -6.1920     6.1980    23.9950 hc         1 M9X       0.073450
     68 H30         -6.7110     7.0780    22.4750 hc         1 M9X       0.073450
     69 H31         -5.0960    -0.4710    25.1480 h1         1 M9X       0.069700
     70 H32         -7.2310    -2.3220    23.8840 hc         1 M9X       0.075200
     71 H33         -6.0050    -1.3560    23.0910 hc         1 M9X       0.075200
     72 H34         -9.3840    -3.1390    20.0130 hn         1 M9X       0.327500
     73 H35         -5.2140     0.7280    27.0640 ho         1 M9X       0.450000
     74 H36         -7.4820    -0.7470    27.7170 hn         1 M9X       0.335500
     75 H37         -6.5340    -3.2800    28.8180 h1         1 M9X       0.089700
     76 H38         -9.2340    -1.7390    29.1780 hc         1 M9X       0.078950
     77 H39         -8.6110    -3.0890    30.2470 hc         1 M9X       0.078950
     78 H18         -9.2050    -3.2970    27.1910 hc         1 M9X       0.078950
@<TRIPOS>BOND
     1     1     4 1   
     2     1     5 1   
     3     1    40 1   
     4     2    11 1   
     5     2    26 1   
     6     2    41 1   
     7     3    18 1   
     8     3    42 1   
     9     3    43 1   
    10     3    44 1   
    11     4    20 1   
    12     4    21 2   
    13     5     6 1   
    14     5     8 2   
    15     6    22 1   
    16     6    24 2   
    17     7    22 1   
    18     7    23 2   
    19     7    45 1   
    20     8    23 1   
    21     8    46 1   
    22     9    25 1   
    23     9    27 1   
    24     9    47 1   
    25     9    48 1   
    26    10    27 1   
    27    10    28 1   
    28    10    49 1   
    29    10    50 1   
    30    11    30 1   
    31    11    31 1   
    32    11    51 1   
    33    12    13 1   
    34    12    31 1   
    35    12    33 1   
    36    12    52 1   
    37    13    14 1   
    38    13    53 1   
    39    13    54 1   
    40    14    32 1   
    41    14    55 1   
    42    14    56 1   
    43    15    30 1   
    44    15    36 1   
    45    15    38 2   
    46    16    37 1   
    47    16    39 1   
    48    16    57 1   
    49    16    78 1   
    50    17    18 1   
    51    17    58 1   
    52    17    59 1   
    53    17    60 1   
    54    18    19 1   
    55    18    20 1   
    56    19    61 1   
    57    19    62 1   
    58    19    63 1   
    59    22    25 1   
    60    23    64 1   
    61    25    26 1   
    62    25    65 1   
    63    26    29 2   
    64    27    28 1   
    65    27    66 1   
    66    28    67 1   
    67    28    68 1   
    68    30    35 1   
    69    30    69 1   
    70    31    70 1   
    71    31    71 1   
    72    32    33 1   
    73    32    72 1   
    74    33    34 2   
    75    35    73 1   
    76    36    37 1   
    77    36    74 1   
    78    37    39 1   
    79    37    75 1   
    80    39    76 1   
    81    39    77 1   
@<TRIPOS>SUBSTRUCTURE
     1 M9X         1 TEMP              0 ****  ****    0 ROOT
