@<TRIPOS>MOLECULE
M9Y
   84    89     1     0     0
SMALL
No Charge or Current Charge


@<TRIPOS>ATOM
      1 F2          10.1990     1.6760    -0.3910 f          1 M9Y      -0.114000
      2 C            8.9720     1.1160    -0.4900 c3         1 M9Y       0.303000
      3 F            8.6850     0.9750    -1.8050 f          1 M9Y      -0.114000
      4 F1           9.0350    -0.1200     0.0600 f          1 M9Y      -0.114000
      5 C1           7.9080     2.0000     0.2250 c3         1 M9Y       0.088800
      6 N            6.5260     1.4490     0.1370 n7         1 M9Y      -0.847400
      7 C2           5.4770     2.2400     0.7990 c3         1 M9Y       0.257900
      8 C3           4.1850     1.5740     0.6230 c1         1 M9Y      -0.133100
      9 C4           3.1430     0.9680     0.4600 cg         1 M9Y      -0.161000
     10 C5           1.9530     0.2150     0.2520 cc         1 M9Y       0.401000
     11 N3           0.7800     0.9210     0.2520 nc         1 M9Y      -0.632000
     12 C7          -0.2450     0.1150     0.0380 cd         1 M9Y       0.497900
     13 S            0.1610    -1.5790    -0.1740 ss         1 M9Y      -0.015400
     14 C6           1.8650    -1.1580     0.0430 cd         1 M9Y      -0.238300
     15 C23          3.0350    -2.1790    -0.0070 c6         1 M9Y       0.345500
     16 C32          4.0320    -1.8060    -1.1650 c6         1 M9Y      -0.069400
     17 C31          5.2940    -2.7130    -1.1980 c6         1 M9Y      -0.067900
     18 C30          6.0360    -2.6880     0.1600 c6         1 M9Y      -0.071400
     19 C29          5.0900    -3.0760     1.3210 c6         1 M9Y      -0.067900
     20 C28          3.8360    -2.1590     1.3460 c6         1 M9Y      -0.069400
     21 N4           2.5380    -3.5850    -0.2490 n3         1 M9Y      -0.844600
     22 C27          1.9560    -3.9540    -1.5790 c5         1 M9Y       0.218800
     23 C26          1.0890    -5.2140    -1.2910 c5         1 M9Y      -0.092400
     24 C25          1.6040    -5.6830     0.0910 c5         1 M9Y      -0.092400
     25 C24          1.7750    -4.3220     0.7950 c5         1 M9Y       0.218800
     26 C8          -1.6380     0.6170    -0.0250 ca         1 M9Y      -0.176500
     27 C22         -1.9200     1.9780     0.2610 ca         1 M9Y      -0.004000
     28 C21         -3.2470     2.4190     0.1740 ca         1 M9Y      -0.108800
     29 C11         -4.2720     1.5890    -0.1830 ca         1 M9Y      -0.037200
     30 C10         -4.0350     0.2390    -0.4750 ca         1 M9Y      -0.130000
     31 C9          -2.7110    -0.2430    -0.3960 ca         1 M9Y      -0.081000
     32 C20         -3.8070     3.7170     0.4070 cc         1 M9Y      -0.227200
     33 C19         -5.1750     3.6200     0.1760 cd         1 M9Y      -0.163100
     34 N1          -5.4720     2.2890    -0.1960 na         1 M9Y      -0.087700
     35 C12         -6.7740     1.7110    -0.5660 c3         1 M9Y       0.077600
     36 C13         -7.4550     0.9610     0.6000 c3         1 M9Y      -0.098400
     37 C14         -8.7730     0.2190     0.2230 c6         1 M9Y      -0.057700
     38 C18         -9.8840     1.1810    -0.2860 c6         1 M9Y      -0.112900
     39 C17        -11.1910     0.4140    -0.6010 c6         1 M9Y       0.148800
     40 N2         -11.6530    -0.3580     0.5780 n7         1 M9Y      -0.843400
     41 C16        -10.6370    -1.3260     1.0560 c6         1 M9Y       0.148800
     42 C15         -9.3160    -0.6060     1.4210 c6         1 M9Y      -0.112900
     43 H1           8.2080     2.1050     1.2780 h1         1 M9Y       0.065200
     44 H2           7.9470     3.0040    -0.2200 h1         1 M9Y       0.065200
     45 H3           6.2660     1.3600    -0.8540 hn         1 M9Y       0.433000
     46 H5           5.6810     2.3380     1.8750 h1         1 M9Y       0.048200
     47 H6           5.4160     3.2510     0.3710 h1         1 M9Y       0.048200
     48 H7           3.5240    -1.8380    -2.1370 hc         1 M9Y       0.047950
     49 H8           4.3800    -0.7740    -1.0640 hc         1 M9Y       0.047950
     50 H9           5.0150    -3.7460    -1.4480 hc         1 M9Y       0.042200
     51 H10          5.9700    -2.3760    -1.9950 hc         1 M9Y       0.042200
     52 H11          6.8930    -3.3730     0.1300 hc         1 M9Y       0.034700
     53 H12          6.4450    -1.6840     0.3380 hc         1 M9Y       0.034700
     54 H13          4.7920    -4.1290     1.2230 hc         1 M9Y       0.042200
     55 H14          5.6260    -2.9960     2.2770 hc         1 M9Y       0.042200
     56 H15          4.1840    -1.1490     1.5810 hc         1 M9Y       0.047950
     57 H16          3.1850    -2.4310     2.1860 hc         1 M9Y       0.047950
     58 H18          1.3530    -3.1540    -2.0280 h1         1 M9Y       0.034700
     59 H19          2.7570    -4.1910    -2.2920 h1         1 M9Y       0.034700
     60 H20          0.0260    -4.9470    -1.2430 hc         1 M9Y       0.048700
     61 H21          1.1980    -5.9810    -2.0650 hc         1 M9Y       0.048700
     62 H22          0.8940    -6.3380     0.6090 hc         1 M9Y       0.048700
     63 H23          2.5580    -6.2170     0.0120 hc         1 M9Y       0.048700
     64 H24          2.3310    -4.4350     1.7350 h1         1 M9Y       0.034700
     65 H25          0.8040    -3.8680     1.0260 h1         1 M9Y       0.034700
     66 H26         -1.1360     2.6760     0.5450 ha         1 M9Y       0.140000
     67 H27         -4.8460    -0.4270    -0.7590 ha         1 M9Y       0.116000
     68 H28         -2.5320    -1.2890    -0.6310 ha         1 M9Y       0.110000
     69 H29         -3.2770     4.6200     0.7070 ha         1 M9Y       0.210000
     70 H30         -5.9450     4.3840     0.2440 h4         1 M9Y       0.211000
     71 H31         -7.4230     2.5260    -0.9100 h1         1 M9Y       0.057700
     72 H32         -6.6260     1.0250    -1.4100 h1         1 M9Y       0.057700
     73 H33         -6.7380     0.2340     1.0010 hc         1 M9Y       0.054200
     74 H34         -7.6470     1.6760     1.4090 hc         1 M9Y       0.054200
     75 H35         -8.5170    -0.4790    -0.5880 hc         1 M9Y       0.049700
     76 H36        -10.0830     1.9560     0.4660 hc         1 M9Y       0.043700
     77 H37         -9.5540     1.7040    -1.1940 hc         1 M9Y       0.043700
     78 H38        -11.9720     1.1270    -0.9070 h1         1 M9Y       0.053200
     79 H39        -11.0200    -0.2710    -1.4460 h1         1 M9Y       0.053200
     80 H40        -11.8420     0.3060     1.3390 hn         1 M9Y       0.403000
     81 H42        -11.0210    -1.8610     1.9380 h1         1 M9Y       0.053200
     82 H43        -10.4430    -2.0760     0.2740 h1         1 M9Y       0.053200
     83 H44         -8.5710    -1.3500     1.7350 hc         1 M9Y       0.043700
     84 H45         -9.4830     0.0510     2.2850 hc         1 M9Y       0.043700
@<TRIPOS>BOND
     1     1     2 1   
     2     2     3 1   
     3     2     4 1   
     4     2     5 1   
     5     5     6 1   
     6     5    43 1   
     7     5    44 1   
     8     6     7 1   
     9     6    45 1   
    10     7     8 1   
    11     7    46 1   
    12     7    47 1   
    13     8     9 3   
    14     9    10 1   
    15    10    11 1   
    16    10    14 2   
    17    11    12 2   
    18    12    13 1   
    19    12    26 1   
    20    13    14 1   
    21    14    15 1   
    22    15    16 1   
    23    15    20 1   
    24    15    21 1   
    25    16    17 1   
    26    16    48 1   
    27    16    49 1   
    28    17    18 1   
    29    17    50 1   
    30    17    51 1   
    31    18    19 1   
    32    18    52 1   
    33    18    53 1   
    34    19    20 1   
    35    19    54 1   
    36    19    55 1   
    37    20    56 1   
    38    20    57 1   
    39    21    22 1   
    40    21    25 1   
    41    22    23 1   
    42    22    58 1   
    43    22    59 1   
    44    23    24 1   
    45    23    60 1   
    46    23    61 1   
    47    24    25 1   
    48    24    62 1   
    49    24    63 1   
    50    25    64 1   
    51    25    65 1   
    52    26    27 ar  
    53    26    31 ar  
    54    27    28 ar  
    55    27    66 1   
    56    28    29 ar  
    57    28    32 1   
    58    29    30 ar  
    59    29    34 1   
    60    30    31 ar  
    61    30    67 1   
    62    31    68 1   
    63    32    33 2   
    64    32    69 1   
    65    33    34 1   
    66    33    70 1   
    67    34    35 1   
    68    35    36 1   
    69    35    71 1   
    70    35    72 1   
    71    36    37 1   
    72    36    73 1   
    73    36    74 1   
    74    37    38 1   
    75    37    42 1   
    76    37    75 1   
    77    38    39 1   
    78    38    76 1   
    79    38    77 1   
    80    39    40 1   
    81    39    78 1   
    82    39    79 1   
    83    40    41 1   
    84    40    80 1   
    85    41    42 1   
    86    41    81 1   
    87    41    82 1   
    88    42    83 1   
    89    42    84 1   
@<TRIPOS>SUBSTRUCTURE
     1 M9Y         1 TEMP              0 ****  ****    0 ROOT
