@<TRIPOS>MOLECULE
M9Y
   84    89     1     0     0
SMALL
abcg2


@<TRIPOS>ATOM
      1 F2           8.0930     5.6140    -0.5020 f          1 M9Y      -0.114000
      2 C            6.9100     4.9830    -0.4850 c3         1 M9Y       0.303000
      3 F            6.0660     5.7560     0.2180 f          1 M9Y      -0.114000
      4 F1           6.4560     4.9650    -1.7430 f          1 M9Y      -0.114000
      5 C1           7.0370     3.6010     0.1060 c3         1 M9Y       0.088800
      6 N            5.7510     2.9420     0.1120 n7         1 M9Y      -0.847400
      7 C2           5.8700     1.5100     0.3270 c3         1 M9Y       0.257900
      8 C3           4.5710     0.8570     0.2190 c1         1 M9Y      -0.133100
      9 C4           3.5070     0.2970     0.1380 cg         1 M9Y      -0.161000
     10 C5           2.2410    -0.3450     0.0420 cc         1 M9Y       0.401000
     11 N3           1.1260     0.4440    -0.0550 nc         1 M9Y      -0.632000
     12 C7           0.0430    -0.2620    -0.1430 cd         1 M9Y       0.497900
     13 S            0.3330    -1.9680    -0.0990 ss         1 M9Y      -0.015400
     14 C6           2.0250    -1.7010     0.0300 cd         1 M9Y      -0.238300
     15 C23          2.9920    -2.8800     0.1050 c6         1 M9Y       0.345500
     16 C32          3.9880    -2.7840    -1.0710 c6         1 M9Y      -0.069400
     17 C31          5.0760    -3.8470    -0.9910 c6         1 M9Y      -0.067900
     18 C30          5.8390    -3.7570     0.3260 c6         1 M9Y      -0.071400
     19 C29          4.8880    -3.8310     1.5140 c6         1 M9Y      -0.067900
     20 C28          3.7950    -2.7730     1.4180 c6         1 M9Y      -0.069400
     21 N4           2.3120    -4.1510     0.0510 n3         1 M9Y      -0.844600
     22 C27          1.7560    -4.6510    -1.2010 c5         1 M9Y       0.218800
     23 C26          0.6060    -5.5600    -0.7700 c5         1 M9Y      -0.092400
     24 C25          1.0060    -5.9840     0.6390 c5         1 M9Y      -0.092400
     25 C24          1.6330    -4.7170     1.2030 c5         1 M9Y       0.218800
     26 C8          -1.3010     0.3010    -0.2590 ca         1 M9Y      -0.176500
     27 C22         -1.4840     1.6620    -0.0510 ca         1 M9Y      -0.004000
     28 C21         -2.7620     2.2050    -0.1690 ca         1 M9Y      -0.108800
     29 C11         -3.8460     1.3610    -0.5070 ca         1 M9Y      -0.037200
     30 C10         -3.6740    -0.0070    -0.7150 ca         1 M9Y      -0.130000
     31 C9          -2.4010    -0.5190    -0.5880 ca         1 M9Y      -0.081000
     32 C20         -3.2970     3.5220    -0.0280 cc         1 M9Y      -0.227200
     33 C19         -4.6330     3.4240    -0.2830 cd         1 M9Y      -0.163100
     34 N1          -4.9700     2.1300    -0.5800 na         1 M9Y      -0.087700
     35 C12         -6.3110     1.6490    -0.8380 c3         1 M9Y       0.077600
     36 C13         -6.9700     1.0510     0.4010 c3         1 M9Y      -0.098400
     37 C14         -8.3500     0.4580     0.1260 c6         1 M9Y      -0.057700
     38 C18         -9.3470     1.4880    -0.4070 c6         1 M9Y      -0.112900
     39 C17        -10.7370     0.8770    -0.5760 c6         1 M9Y       0.148800
     40 N2         -11.2590     0.2380     0.6210 n7         1 M9Y      -0.843400
     41 C16        -10.3220    -0.7410     1.1520 c6         1 M9Y       0.148800
     42 C15         -8.9190    -0.1880     1.3890 c6         1 M9Y      -0.112900
     43 H1           7.7280     3.0360    -0.5250 h1         1 M9Y       0.065200
     44 H2           7.5080     3.6890     1.0940 h1         1 M9Y       0.065200
     45 H3           5.1680     3.3340     0.8410 hn         1 M9Y       0.433000
     46 H5           6.5350     1.0950    -0.4360 h1         1 M9Y       0.048200
     47 H6           6.3180     1.2490     1.2970 h1         1 M9Y       0.048200
     48 H7           3.4520    -2.8450    -2.0210 hc         1 M9Y       0.047950
     49 H8           4.4530    -1.7960    -1.0530 hc         1 M9Y       0.047950
     50 H9           4.6360    -4.8430    -1.0910 hc         1 M9Y       0.042200
     51 H10          5.7610    -3.7220    -1.8340 hc         1 M9Y       0.042200
     52 H11          6.5820    -4.5570     0.3880 hc         1 M9Y       0.034700
     53 H12          6.3960    -2.8140     0.3590 hc         1 M9Y       0.034700
     54 H13          4.4410    -4.8280     1.5570 hc         1 M9Y       0.042200
     55 H14          5.4370    -3.6950     2.4490 hc         1 M9Y       0.042200
     56 H15          4.2550    -1.7830     1.4580 hc         1 M9Y       0.047950
     57 H16          3.1220    -2.8240     2.2770 hc         1 M9Y       0.047950
     58 H18          1.4000    -3.8530    -1.8620 h1         1 M9Y       0.034700
     59 H19          2.5040    -5.2170    -1.7710 h1         1 M9Y       0.034700
     60 H20         -0.3290    -4.9950    -0.7380 hc         1 M9Y       0.048700
     61 H21          0.4620    -6.3980    -1.4520 hc         1 M9Y       0.048700
     62 H22          0.1670    -6.3390     1.2390 hc         1 M9Y       0.048700
     63 H23          1.7510    -6.7820     0.6000 hc         1 M9Y       0.048700
     64 H24          2.3300    -4.9390     2.0140 h1         1 M9Y       0.034700
     65 H25          0.8560    -4.0630     1.6270 h1         1 M9Y       0.034700
     66 H26         -0.6400     2.2900     0.2040 ha         1 M9Y       0.140000
     67 H27         -4.5030    -0.6550    -0.9700 ha         1 M9Y       0.116000
     68 H28         -2.2580    -1.5790    -0.7590 ha         1 M9Y       0.110000
     69 H29         -2.7600     4.4220     0.2240 ha         1 M9Y       0.210000
     70 H30         -5.3900     4.1920    -0.2820 h4         1 M9Y       0.211000
     71 H31         -6.8890     2.4920    -1.2160 h1         1 M9Y       0.057700
     72 H32         -6.2690     0.9130    -1.6450 h1         1 M9Y       0.057700
     73 H33         -6.3240     0.2670     0.8090 hc         1 M9Y       0.054200
     74 H34         -7.0500     1.8240     1.1710 hc         1 M9Y       0.054200
     75 H35         -8.2370    -0.3290    -0.6350 hc         1 M9Y       0.049700
     76 H36         -9.4000     2.3330     0.2900 hc         1 M9Y       0.043700
     77 H37         -9.0200     1.8940    -1.3690 hc         1 M9Y       0.043700
     78 H38        -11.4460     1.6410    -0.9040 h1         1 M9Y       0.053200
     79 H39        -10.7000     0.1240    -1.3710 h1         1 M9Y       0.053200
     80 H40        -11.4240     0.9480     1.3250 hn         1 M9Y       0.403000
     81 H42        -10.7310    -1.1490     2.0790 h1         1 M9Y       0.053200
     82 H43        -10.2670    -1.5750     0.4430 h1         1 M9Y       0.053200
     83 H44         -8.2590    -0.9890     1.7370 hc         1 M9Y       0.043700
     84 H45         -8.9580     0.5590     2.1910 hc         1 M9Y       0.043700
@<TRIPOS>BOND
     1     1     2 1   
     2     2     3 1   
     3     2     4 1   
     4     2     5 1   
     5     5     6 1   
     6     5    43 1   
     7     5    44 1   
     8     6     7 1   
     9     6    45 1   
    10     7     8 1   
    11     7    46 1   
    12     7    47 1   
    13     8     9 3   
    14     9    10 1   
    15    10    11 1   
    16    10    14 2   
    17    11    12 2   
    18    12    13 1   
    19    12    26 1   
    20    13    14 1   
    21    14    15 1   
    22    15    16 1   
    23    15    20 1   
    24    15    21 1   
    25    16    17 1   
    26    16    48 1   
    27    16    49 1   
    28    17    18 1   
    29    17    50 1   
    30    17    51 1   
    31    18    19 1   
    32    18    52 1   
    33    18    53 1   
    34    19    20 1   
    35    19    54 1   
    36    19    55 1   
    37    20    56 1   
    38    20    57 1   
    39    21    22 1   
    40    21    25 1   
    41    22    23 1   
    42    22    58 1   
    43    22    59 1   
    44    23    24 1   
    45    23    60 1   
    46    23    61 1   
    47    24    25 1   
    48    24    62 1   
    49    24    63 1   
    50    25    64 1   
    51    25    65 1   
    52    26    27 ar  
    53    26    31 ar  
    54    27    28 ar  
    55    27    66 1   
    56    28    29 ar  
    57    28    32 1   
    58    29    30 ar  
    59    29    34 1   
    60    30    31 ar  
    61    30    67 1   
    62    31    68 1   
    63    32    33 2   
    64    32    69 1   
    65    33    34 1   
    66    33    70 1   
    67    34    35 1   
    68    35    36 1   
    69    35    71 1   
    70    35    72 1   
    71    36    37 1   
    72    36    73 1   
    73    36    74 1   
    74    37    38 1   
    75    37    42 1   
    76    37    75 1   
    77    38    39 1   
    78    38    76 1   
    79    38    77 1   
    80    39    40 1   
    81    39    78 1   
    82    39    79 1   
    83    40    41 1   
    84    40    80 1   
    85    41    42 1   
    86    41    81 1   
    87    41    82 1   
    88    42    83 1   
    89    42    84 1   
@<TRIPOS>SUBSTRUCTURE
     1 M9Y         1 TEMP              0 ****  ****    0 ROOT
