@<TRIPOS>MOLECULE
M9Z
   65    68     1     0     0
SMALL
No Charge or Current Charge


@<TRIPOS>ATOM
      1 CAO          1.7300     3.9280    10.4390 ca         1 M9Z      -0.008500
      2 CAP          1.5990     3.9660    11.8380 ca         1 M9Z      -0.126500
      3 CAQ          1.3880     2.7810    12.5610 ca         1 M9Z      -0.051000
      4 CAR          1.2970     1.5540    11.8810 ca         1 M9Z      -0.126500
      5 CAS          1.4210     1.5110    10.4820 ca         1 M9Z      -0.008500
      6 CAN          1.6490     2.6970     9.7560 ca         1 M9Z      -0.282500
      7 SAL          1.8310     2.6300     7.9580 sy         1 M9Z       1.149600
      8 OAT          1.0320     1.5090     7.4450 o          1 M9Z      -0.546500
      9 OAU          1.6900     3.9820     7.4060 o          1 M9Z      -0.546500
     10 NAK          3.4930     2.1950     7.7800 nh         1 M9Z      -0.582300
     11 CAM          3.8070     1.2220     6.7180 c3         1 M9Z       0.197100
     12 CAC          4.3630     2.3800     8.8790 cc         1 M9Z      -0.245200
     13 CAD          4.6250     1.2390     9.7950 c          1 M9Z       0.600200
     14 OAH          4.1620     0.1150     9.6730 o          1 M9Z      -0.537000
     15 NAE          5.4530     1.5290    10.8240 ns         1 M9Z      -0.465500
     16 CAF          6.0940     2.6900    11.0910 c          1 M9Z       0.618000
     17 OAG          6.8410     2.7620    12.0530 o          1 M9Z      -0.538000
     18 NAA          5.8710     3.7550    10.2020 n          1 M9Z      -0.318000
     19 CAI          6.6890     4.9810    10.4100 c3         1 M9Z       0.147300
     20 CAV          6.2700     5.8580    11.5940 ca         1 M9Z      -0.107300
     21 CAW          7.2110     6.7420    12.1590 ca         1 M9Z      -0.099500
     22 CAX          6.8660     7.5410    13.2630 ca         1 M9Z      -0.099500
     23 CAY          5.5720     7.4720    13.8050 ca         1 M9Z      -0.092000
     24 CAZ          4.6250     6.6010    13.2440 ca         1 M9Z      -0.099500
     25 CBA          4.9720     5.7950    12.1470 ca         1 M9Z      -0.099500
     26 CAB          4.9840     3.5860     9.1370 cd         1 M9Z       0.392600
     27 NAJ          4.8030     4.5990     8.2330 nu         1 M9Z      -0.802200
     28 CBB          4.2620     5.9350     8.5340 c3         1 M9Z       0.197800
     29 CBC          4.9580     6.9990     7.6640 c3         1 M9Z      -0.101400
     30 CBK          4.3480     8.4090     7.8180 c3         1 M9Z       0.082600
     31 NBD          4.4350     8.9510     9.1850 na         1 M9Z       0.118800
     32 CBH          5.5260     9.5250     9.7850 cc         1 M9Z      -0.217000
     33 NBE          3.3520     8.9450    10.0120 nc         1 M9Z      -0.202800
     34 NBF          3.7310     9.5130    11.1260 nd         1 M9Z      -0.326000
     35 CBG          5.0570     9.8850    11.0170 cd         1 M9Z       0.202300
     36 CBI          5.8090    10.5950    12.1310 c3         1 M9Z       0.136500
     37 NBJ          5.8760    12.0690    11.9450 n8         1 M9Z      -0.979200
     38 H1           1.8890     4.8560     9.8960 ha         1 M9Z       0.131500
     39 H2           1.6610     4.9170    12.3630 ha         1 M9Z       0.116500
     40 H3           1.2890     2.8120    13.6440 ha         1 M9Z       0.114000
     41 H4           1.1300     0.6360    12.4390 ha         1 M9Z       0.116500
     42 H5           1.3540     0.5530     9.9680 ha         1 M9Z       0.131500
     43 H6           4.8940     1.1290     6.5950 h1         1 M9Z       0.054700
     44 H7           3.4030     0.2320     6.9690 h1         1 M9Z       0.054700
     45 H8           3.3790     1.5420     5.7600 h1         1 M9Z       0.054700
     46 H9           5.6360     0.7730    11.4630 hn         1 M9Z       0.347500
     47 H10          7.7280     4.6660    10.5720 h1         1 M9Z       0.073700
     48 H11          6.7190     5.5900     9.5020 h1         1 M9Z       0.073700
     49 H12          8.2160     6.8040    11.7490 ha         1 M9Z       0.110000
     50 H13          7.6020     8.2140    13.6980 ha         1 M9Z       0.114000
     51 H14          5.3040     8.0930    14.6570 ha         1 M9Z       0.118000
     52 H15          3.6220     6.5470    13.6620 ha         1 M9Z       0.114000
     53 H16          4.2280     5.1200    11.7330 ha         1 M9Z       0.110000
     54 H17          4.3730     4.1750     7.4090 hn         1 M9Z       0.490000
     55 H18          4.3790     6.1870     9.5940 h1         1 M9Z       0.082700
     56 H19          3.1860     5.9570     8.3140 h1         1 M9Z       0.082700
     57 H20          4.8840     6.7040     6.6100 hc         1 M9Z       0.056700
     58 H21          6.0260     7.0390     7.9080 hc         1 M9Z       0.056700
     59 H22          4.8690     9.1010     7.1450 h1         1 M9Z       0.072700
     60 H23          3.2940     8.3870     7.5130 h1         1 M9Z       0.072700
     61 H24          6.4920     9.6380     9.3130 h4         1 M9Z       0.161000
     62 H25          5.3210    10.3820    13.0920 h1         1 M9Z       0.035700
     63 H26          6.8330    10.2010    12.1740 h1         1 M9Z       0.035700
     64 H27          6.4590    12.4770    12.6860 hn         1 M9Z       0.392500
     65 H28          6.3960    12.2760    11.0840 hn         1 M9Z       0.392500
@<TRIPOS>BOND
     1     1     2 ar  
     2     1     6 ar  
     3     1    38 1   
     4     2     3 ar  
     5     2    39 1   
     6     3     4 ar  
     7     3    40 1   
     8     4     5 ar  
     9     4    41 1   
    10     5     6 ar  
    11     5    42 1   
    12     6     7 1   
    13     7     8 2   
    14     7     9 2   
    15     7    10 1   
    16    10    11 1   
    17    10    12 1   
    18    11    43 1   
    19    11    44 1   
    20    11    45 1   
    21    12    13 1   
    22    12    26 2   
    23    13    14 2   
    24    13    15 1   
    25    15    16 1   
    26    15    46 1   
    27    16    17 2   
    28    16    18 1   
    29    18    19 1   
    30    18    26 1   
    31    19    20 1   
    32    19    47 1   
    33    19    48 1   
    34    20    21 ar  
    35    20    25 ar  
    36    21    22 ar  
    37    21    49 1   
    38    22    23 ar  
    39    22    50 1   
    40    23    24 ar  
    41    23    51 1   
    42    24    25 ar  
    43    24    52 1   
    44    25    53 1   
    45    26    27 1   
    46    27    28 1   
    47    27    54 1   
    48    28    29 1   
    49    28    55 1   
    50    28    56 1   
    51    29    30 1   
    52    29    57 1   
    53    29    58 1   
    54    30    31 1   
    55    30    59 1   
    56    30    60 1   
    57    31    32 1   
    58    31    33 1   
    59    32    35 2   
    60    32    61 1   
    61    33    34 2   
    62    34    35 1   
    63    35    36 1   
    64    36    37 1   
    65    36    62 1   
    66    36    63 1   
    67    37    64 1   
    68    37    65 1   
@<TRIPOS>SUBSTRUCTURE
     1 M9Z         1 TEMP              0 ****  ****    0 ROOT
