@<TRIPOS>MOLECULE
M9Z
   65    68     1     0     0
SMALL
bcc


@<TRIPOS>ATOM
      1 CAO          1.2860     2.1910    11.2360 ca         1 M9Z      -0.026500
      2 CAP          0.8750     1.2800    12.1970 ca         1 M9Z      -0.144500
      3 CAQ          0.3210     0.0660    11.8160 ca         1 M9Z      -0.069000
      4 CAR          0.1680    -0.2430    10.4700 ca         1 M9Z      -0.144500
      5 CAS          0.5770     0.6570     9.4980 ca         1 M9Z      -0.026500
      6 CAN          1.1380     1.8630     9.8950 ca         1 M9Z      -0.282500
      7 SAL          1.7330     2.9810     8.6630 sy         1 M9Z       1.291200
      8 OAT          0.9610     2.7940     7.4450 o          1 M9Z      -0.617300
      9 OAU          1.8150     4.3000     9.2690 o          1 M9Z      -0.617300
     10 NAK          3.2950     2.5090     8.3080 nh         1 M9Z      -0.582300
     11 CAM          3.4820     1.4620     7.3010 c3         1 M9Z       0.197100
     12 CAC          4.2180     2.6120     9.3720 cc         1 M9Z      -0.245200
     13 CAD          4.4050     1.5090    10.2650 c          1 M9Z       0.742700
     14 OAH          3.8740     0.4170    10.1770 o          1 M9Z      -0.612500
     15 NAE          5.2660     1.7820    11.3180 ns         1 M9Z      -0.599500
     16 CAF          5.9870     2.9190    11.5180 c          1 M9Z       0.827500
     17 OAG          6.7440     3.0520    12.4550 o          1 M9Z      -0.613500
     18 NAA          5.8270     3.9160    10.5630 n          1 M9Z      -0.385000
     19 CAI          6.8260     4.9790    10.6030 c3         1 M9Z       0.147300
     20 CAV          6.5360     6.1050    11.5620 ca         1 M9Z      -0.107300
     21 CAW          7.4090     7.1910    11.5630 ca         1 M9Z      -0.117500
     22 CAX          7.2230     8.2470    12.4400 ca         1 M9Z      -0.117500
     23 CAY          6.1530     8.2370    13.3250 ca         1 M9Z      -0.110000
     24 CAZ          5.2720     7.1670    13.3190 ca         1 M9Z      -0.117500
     25 CBA          5.4630     6.1050    12.4440 ca         1 M9Z      -0.117500
     26 CAB          4.9520     3.7750     9.5090 cd         1 M9Z       0.392600
     27 NAJ          4.8790     4.7480     8.5760 nu         1 M9Z      -0.747000
     28 CBB          4.6130     6.1650     8.8310 c3         1 M9Z       0.197800
     29 CBC          5.4650     7.0430     7.9250 c3         1 M9Z      -0.101400
     30 CBK          4.9480     8.4670     7.7900 c3         1 M9Z       0.053300
     31 NBD          5.0040     9.2370     9.0170 na         1 M9Z       0.097400
     32 CBH          5.9470    10.1090     9.4120 cc         1 M9Z      -0.249600
     33 NBE          4.0420     9.1500     9.9190 nc         1 M9Z      -0.202800
     34 NBF          4.3330     9.9440    10.8910 nd         1 M9Z      -0.326000
     35 CBG          5.5040    10.5640    10.6270 cd         1 M9Z       0.267600
     36 CBI          6.1210    11.5740    11.5320 c3         1 M9Z       0.136500
     37 NBJ          5.2890    12.7660    11.6300 n8         1 M9Z      -0.868800
     38 H1           1.7100     3.1400    11.5340 ha         1 M9Z       0.149500
     39 H2           0.9850     1.5240    13.2450 ha         1 M9Z       0.134500
     40 H3           0.0000    -0.6410    12.5700 ha         1 M9Z       0.132000
     41 H4          -0.2740    -1.1840    10.1740 ha         1 M9Z       0.134500
     42 H5           0.4520     0.4160     8.4510 ha         1 M9Z       0.149500
     43 H6           4.5530     1.3450     7.1550 h1         1 M9Z       0.054700
     44 H7           3.0680     0.4990     7.6010 h1         1 M9Z       0.054700
     45 H8           3.0460     1.7680     6.3540 h1         1 M9Z       0.054700
     46 H9           5.4100     1.0460    11.9980 hn         1 M9Z       0.347500
     47 H10          7.7830     4.5270    10.8630 h1         1 M9Z       0.073700
     48 H11          6.9510     5.3590     9.5900 h1         1 M9Z       0.073700
     49 H12          8.2430     7.2100    10.8710 ha         1 M9Z       0.128000
     50 H13          7.9100     9.0830    12.4260 ha         1 M9Z       0.132000
     51 H14          6.0040     9.0610    14.0100 ha         1 M9Z       0.136000
     52 H15          4.4310     7.1530    13.9990 ha         1 M9Z       0.132000
     53 H16          4.7540     5.2870    12.4510 ha         1 M9Z       0.128000
     54 H17          4.3560     4.4190     7.7750 hn         1 M9Z       0.434800
     55 H18          4.7740     6.4030     9.8790 h1         1 M9Z       0.082700
     56 H19          3.5520     6.3460     8.6400 h1         1 M9Z       0.082700
     57 H20          5.4690     6.6200     6.9180 hc         1 M9Z       0.056700
     58 H21          6.5060     7.0540     8.2610 hc         1 M9Z       0.056700
     59 H22          5.5360     9.0030     7.0470 h1         1 M9Z       0.072700
     60 H23          3.9130     8.4670     7.4490 h1         1 M9Z       0.072700
     61 H24          6.8210    10.3370     8.8260 h4         1 M9Z       0.179000
     62 H25          6.2170    11.1480    12.5330 h1         1 M9Z       0.035700
     63 H26          7.1430    11.7680    11.1820 h1         1 M9Z       0.035700
     64 H27          5.7150    13.4120    12.2830 hn         1 M9Z       0.337300
     65 H28          5.2800    13.2430    10.7370 hn         1 M9Z       0.337300
@<TRIPOS>BOND
     1     1     2 ar  
     2     1     6 ar  
     3     1    38 1   
     4     2     3 ar  
     5     2    39 1   
     6     3     4 ar  
     7     3    40 1   
     8     4     5 ar  
     9     4    41 1   
    10     5     6 ar  
    11     5    42 1   
    12     6     7 1   
    13     7     8 2   
    14     7     9 2   
    15     7    10 1   
    16    10    11 1   
    17    10    12 1   
    18    11    43 1   
    19    11    44 1   
    20    11    45 1   
    21    12    13 1   
    22    12    26 2   
    23    13    14 2   
    24    13    15 1   
    25    15    16 1   
    26    15    46 1   
    27    16    17 2   
    28    16    18 1   
    29    18    19 1   
    30    18    26 1   
    31    19    20 1   
    32    19    47 1   
    33    19    48 1   
    34    20    21 ar  
    35    20    25 ar  
    36    21    22 ar  
    37    21    49 1   
    38    22    23 ar  
    39    22    50 1   
    40    23    24 ar  
    41    23    51 1   
    42    24    25 ar  
    43    24    52 1   
    44    25    53 1   
    45    26    27 1   
    46    27    28 1   
    47    27    54 1   
    48    28    29 1   
    49    28    55 1   
    50    28    56 1   
    51    29    30 1   
    52    29    57 1   
    53    29    58 1   
    54    30    31 1   
    55    30    59 1   
    56    30    60 1   
    57    31    32 1   
    58    31    33 1   
    59    32    35 2   
    60    32    61 1   
    61    33    34 2   
    62    34    35 1   
    63    35    36 1   
    64    36    37 1   
    65    36    62 1   
    66    36    63 1   
    67    37    64 1   
    68    37    65 1   
@<TRIPOS>SUBSTRUCTURE
     1 M9Z         1 TEMP              0 ****  ****    0 ROOT
