@<TRIPOS>MOLECULE
MA0
   31    32     1     0     0
SMALL
No Charge or Current Charge


@<TRIPOS>ATOM
      1 C13          5.2520     0.8700     0.5350 c2         1 MA0      -0.121000
      2 C12          4.0770     0.6780    -0.1130 ce         1 MA0      -0.399600
      3 C11          2.9460    -0.0830     0.4540 ce         1 MA0       0.403500
      4 N10          1.7420    -0.2680    -0.2410 nh         1 MA0      -0.139700
      5 C9           0.6200    -0.7910     0.5930 c5         1 MA0       0.079600
      6 C1           0.4030    -2.2970     0.1540 c5         1 MA0      -0.087400
      7 C2          -1.1330    -2.5800     0.3670 c5         1 MA0      -0.024100
      8 C3          -1.7020    -1.1990     0.1630 ca         1 MA0      -0.105300
      9 C8          -0.7420    -0.2150     0.2910 ca         1 MA0      -0.122300
     10 C7          -1.0830     1.1430     0.1700 ca         1 MA0      -0.129000
     11 C4          -3.0410    -0.8730    -0.1040 ca         1 MA0      -0.039000
     12 C5          -3.3970     0.4840    -0.2420 ca         1 MA0      -0.172000
     13 C6          -2.4190     1.4900    -0.1040 ca         1 MA0       0.157100
     14 O6          -2.7600     2.8040    -0.2290 oh         1 MA0      -0.523100
     15 C10          1.5330     0.1670    -1.6390 c3         1 MA0      -0.004100
     16 H131         5.4450     0.4680     1.5330 ha         1 MA0       0.200500
     17 H132         6.0700     1.4410     0.0900 ha         1 MA0       0.200500
     18 H12          3.9410     1.1060    -1.1070 ha         1 MA0       0.222000
     19 H11          3.0240    -0.4900     1.4640 h4         1 MA0       0.050800
     20 H9           0.8190    -0.7130     1.6710 h1         1 MA0       0.092700
     21 H1C1         0.6490    -2.4460    -0.9040 hc         1 MA0       0.067700
     22 H1C2         1.0370    -2.9890     0.7190 hc         1 MA0       0.067700
     23 H2C1        -1.5220    -3.3170    -0.3450 hc         1 MA0       0.078700
     24 H2C2        -1.3400    -2.9530     1.3770 hc         1 MA0       0.078700
     25 H7          -0.3290     1.9170     0.2840 ha         1 MA0       0.127000
     26 H4          -3.7920    -1.6550    -0.2000 ha         1 MA0       0.138000
     27 H5          -4.4320     0.7450    -0.4510 ha         1 MA0       0.136000
     28 H6          -3.7220     2.8600    -0.4140 ho         1 MA0       0.483000
     29 H101         2.3350    -0.2160    -2.2840 h1         1 MA0       0.094367
     30 H102         0.5790    -0.2100    -2.0300 h1         1 MA0       0.094367
     31 H103         1.5200     1.2620    -1.7000 h1         1 MA0       0.094367
@<TRIPOS>BOND
     1     1     2 2   
     2     1    16 1   
     3     1    17 1   
     4     2     3 1   
     5     2    18 1   
     6     3     4 2   
     7     3    19 1   
     8     4     5 1   
     9     4    15 1   
    10     5     6 1   
    11     5     9 1   
    12     5    20 1   
    13     6     7 1   
    14     6    21 1   
    15     6    22 1   
    16     7     8 1   
    17     7    23 1   
    18     7    24 1   
    19     8     9 ar  
    20     8    11 ar  
    21     9    10 ar  
    22    10    13 ar  
    23    10    25 1   
    24    11    12 ar  
    25    11    26 1   
    26    12    13 ar  
    27    12    27 1   
    28    13    14 1   
    29    14    28 1   
    30    15    29 1   
    31    15    30 1   
    32    15    31 1   
@<TRIPOS>SUBSTRUCTURE
     1 MA0         1 TEMP              0 ****  ****    0 ROOT
