@<TRIPOS>MOLECULE
MA0
   31    32     1     0     0
SMALL
abcg2


@<TRIPOS>ATOM
      1 C13          4.9380     1.1120     0.6230 c2         1 MA0      -0.121000
      2 C12          3.9290     0.7490    -0.1780 ce         1 MA0      -0.399600
      3 C11          2.7810     0.1210     0.4070 ce         1 MA0       0.403500
      4 N10          1.7370    -0.2710    -0.2340 nh         1 MA0      -0.139700
      5 C9           0.6330    -0.9230     0.4830 c5         1 MA0       0.079600
      6 C1           0.3860    -2.3720     0.0290 c5         1 MA0      -0.087400
      7 C2          -1.1190    -2.5930     0.2460 c5         1 MA0      -0.024100
      8 C3          -1.6880    -1.2070     0.1290 ca         1 MA0      -0.105300
      9 C8          -0.6940    -0.2470     0.2580 ca         1 MA0      -0.122300
     10 C7          -0.9630     1.1090     0.2210 ca         1 MA0      -0.129000
     11 C4          -3.0000    -0.7970    -0.0480 ca         1 MA0      -0.039000
     12 C5          -3.2940     0.5590    -0.1020 ca         1 MA0      -0.172000
     13 C6          -2.2830     1.5130     0.0290 ca         1 MA0       0.157100
     14 O6          -2.5290     2.8370    -0.0250 oh         1 MA0      -0.523100
     15 C10          1.6140    -0.1120    -1.6830 c3         1 MA0      -0.004100
     16 H131         4.9080     0.9430     1.6920 ha         1 MA0       0.200500
     17 H132         5.8220     1.5890     0.2250 ha         1 MA0       0.200500
     18 H12          3.9770     0.9220    -1.2440 ha         1 MA0       0.222000
     19 H11          2.7820    -0.0440     1.4790 h4         1 MA0       0.050800
     20 H9           0.8930    -0.8950     1.5430 h1         1 MA0       0.092700
     21 H1C1         0.6180    -2.4760    -1.0330 hc         1 MA0       0.067700
     22 H1C2         1.0120    -3.0750     0.5740 hc         1 MA0       0.067700
     23 H2C1        -1.5410    -3.2940    -0.4750 hc         1 MA0       0.078700
     24 H2C2        -1.3110    -3.0020     1.2420 hc         1 MA0       0.078700
     25 H7          -0.1790     1.8510     0.3220 ha         1 MA0       0.127000
     26 H4          -3.7980    -1.5210    -0.1510 ha         1 MA0       0.138000
     27 H5          -4.3190     0.8790    -0.2530 ha         1 MA0       0.136000
     28 H6          -3.4670     3.0010    -0.1720 ho         1 MA0       0.483000
     29 H101         2.3300    -0.7560    -2.1900 h1         1 MA0       0.094367
     30 H102         0.6120    -0.3840    -1.9940 h1         1 MA0       0.094367
     31 H103         1.7900     0.9230    -1.9640 h1         1 MA0       0.094367
@<TRIPOS>BOND
     1     1     2 2   
     2     1    16 1   
     3     1    17 1   
     4     2     3 1   
     5     2    18 1   
     6     3     4 2   
     7     3    19 1   
     8     4     5 1   
     9     4    15 1   
    10     5     6 1   
    11     5     9 1   
    12     5    20 1   
    13     6     7 1   
    14     6    21 1   
    15     6    22 1   
    16     7     8 1   
    17     7    23 1   
    18     7    24 1   
    19     8     9 ar  
    20     8    11 ar  
    21     9    10 ar  
    22    10    13 ar  
    23    10    25 1   
    24    11    12 ar  
    25    11    26 1   
    26    12    13 ar  
    27    12    27 1   
    28    13    14 1   
    29    14    28 1   
    30    15    29 1   
    31    15    30 1   
    32    15    31 1   
@<TRIPOS>SUBSTRUCTURE
     1 MA0         1 TEMP              0 ****  ****    0 ROOT
