@<TRIPOS>MOLECULE
MA1
   24    24     1     0     0
SMALL
No Charge or Current Charge


@<TRIPOS>ATOM
      1 C1          17.9340    24.6740    18.7170 c6         1 MA1       0.340300
      2 C2          19.1030    25.1920    17.8110 c6         1 MA1       0.161300
      3 C3          20.4710    24.8970    18.4910 c6         1 MA1       0.144300
      4 C4          20.5040    25.4970    19.9230 c6         1 MA1       0.025300
      5 C5          19.2920    24.9650    20.7490 c6         1 MA1       0.170300
      6 C6          19.1920    25.6200    22.1680 c3         1 MA1       0.167600
      7 S1          17.8980    22.7990    18.8680 sh         1 MA1      -0.473800
      8 O2          19.0810    24.6390    16.4770 oh         1 MA1      -0.695000
      9 O3          21.5500    25.4300    17.7000 oh         1 MA1      -0.666000
     10 S4          22.1460    25.0490    20.7310 sh         1 MA1      -0.445800
     11 O5          18.0500    25.2440    20.0420 os         1 MA1      -0.432000
     12 O6          18.0370    25.1900    22.9140 oh         1 MA1      -0.703000
     13 H1          16.9800    24.9920    18.2700 h2         1 MA1       0.108700
     14 H2          18.9960    26.2850    17.7470 h1         1 MA1       0.053700
     15 H3          20.5850    23.8050    18.5800 h1         1 MA1       0.074700
     16 H4          20.4270    26.5920    19.8520 h1         1 MA1       0.082700
     17 H5          19.3960    23.8800    20.8940 h1         1 MA1       0.088700
     18 H61         20.1040    25.3760    22.7290 h1         1 MA1       0.029700
     19 H62         19.1710    26.7100    22.0390 h1         1 MA1       0.029700
     20 HS1         16.8120    22.7710    19.6780 hs         1 MA1       0.223800
     21 HO2         19.9940    24.7880    16.1310 ho         1 MA1       0.524000
     22 HO3         22.3480    25.3900    18.2750 ho         1 MA1       0.468000
     23 HS4         21.9860    25.8130    21.8410 hs         1 MA1       0.216800
     24 HO6         18.0200    25.7150    23.7490 ho         1 MA1       0.506000
@<TRIPOS>BOND
     1     1     2 1   
     2     1     7 1   
     3     1    11 1   
     4     1    13 1   
     5     2     3 1   
     6     2     8 1   
     7     2    14 1   
     8     3     4 1   
     9     3     9 1   
    10     3    15 1   
    11     4     5 1   
    12     4    10 1   
    13     4    16 1   
    14     5     6 1   
    15     5    11 1   
    16     5    17 1   
    17     6    12 1   
    18     6    18 1   
    19     6    19 1   
    20     7    20 1   
    21     8    21 1   
    22     9    22 1   
    23    10    23 1   
    24    12    24 1   
@<TRIPOS>SUBSTRUCTURE
     1 MA1         1 TEMP              0 ****  ****    0 ROOT
