@<TRIPOS>MOLECULE
MA1
   24    24     1     0     0
SMALL
bcc


@<TRIPOS>ATOM
      1 C1          18.0020    24.7100    18.7760 c6         1 MA1       0.269200
      2 C2          19.1700    25.1710    17.9080 c6         1 MA1       0.138100
      3 C3          20.5000    24.8810    18.5960 c6         1 MA1       0.121100
      4 C4          20.4880    25.4600    20.0130 c6         1 MA1      -0.022600
      5 C5          19.2650    24.9690    20.7880 c6         1 MA1       0.147100
      6 C6          19.1180    25.6570    22.1280 c3         1 MA1       0.144400
      7 S1          17.9220    22.8690    18.7580 sh         1 MA1      -0.425900
      8 O2          19.0670    24.5420    16.6620 oh         1 MA1      -0.572800
      9 O3          21.5020    25.4510    17.7980 oh         1 MA1      -0.603800
     10 S4          22.0500    24.9560    20.8240 sh         1 MA1      -0.397900
     11 O5          18.0860    25.2490    20.0530 os         1 MA1      -0.385600
     12 O6          18.0270    25.0890    22.8100 oh         1 MA1      -0.580800
     13 H1          17.0650    25.0760    18.3560 h2         1 MA1       0.108700
     14 H2          19.0720    26.2640    17.8140 h1         1 MA1       0.053700
     15 H3          20.6250    23.7890    18.6680 h1         1 MA1       0.074700
     16 H4          20.4790    26.5520    19.9510 h1         1 MA1       0.082700
     17 H5          19.3600    23.8850    20.9450 h1         1 MA1       0.088700
     18 H61         20.0520    25.5310    22.6850 h1         1 MA1       0.029700
     19 H62         18.9850    26.7360    21.9600 h1         1 MA1       0.029700
     20 HS1         16.8100    22.7820    19.4980 hs         1 MA1       0.223800
     21 HO2         19.7810    24.8640    16.1010 ho         1 MA1       0.425000
     22 HO3         22.3590    25.2170    18.1720 ho         1 MA1       0.429000
     23 HS4         22.3230    26.1110    21.4370 hs         1 MA1       0.216800
     24 HO6         17.9700    25.5020    23.6770 ho         1 MA1       0.407000
@<TRIPOS>BOND
     1     1     2 1   
     2     1     7 1   
     3     1    11 1   
     4     1    13 1   
     5     2     3 1   
     6     2     8 1   
     7     2    14 1   
     8     3     4 1   
     9     3     9 1   
    10     3    15 1   
    11     4     5 1   
    12     4    10 1   
    13     4    16 1   
    14     5     6 1   
    15     5    11 1   
    16     5    17 1   
    17     6    12 1   
    18     6    18 1   
    19     6    19 1   
    20     7    20 1   
    21     8    21 1   
    22     9    22 1   
    23    10    23 1   
    24    12    24 1   
@<TRIPOS>SUBSTRUCTURE
     1 MA1         1 TEMP              0 ****  ****    0 ROOT
