@<TRIPOS>MOLECULE
MA2
   27    27     1     0     0
SMALL
No Charge or Current Charge


@<TRIPOS>ATOM
      1 C1          -7.6630    41.7290    20.8290 c6         1 MA2       0.386300
      2 C2          -8.6000    40.4660    20.8370 c6         1 MA2       0.163300
      3 C3          -9.9140    40.7850    20.0700 c6         1 MA2       0.139300
      4 C4         -10.6040    42.0360    20.6780 c6         1 MA2       0.007300
      5 C5          -9.6010    43.2350    20.6920 c6         1 MA2       0.185300
      6 C6         -10.1800    44.5010    21.4130 c3         1 MA2       0.168600
      7 O1          -7.2270    42.1050    19.5200 oh         1 MA2      -0.724000
      8 O2          -7.9890    39.2770    20.2870 oh         1 MA2      -0.702000
      9 O3         -10.8060    39.6550    20.1050 oh         1 MA2      -0.726000
     10 S4         -12.2460    42.3870    19.8540 ss         1 MA2      -0.431000
     11 O5          -8.3690    42.8590    21.3760 os         1 MA2      -0.472000
     12 O6         -10.4290    44.3060    22.8220 oh         1 MA2      -0.708000
     13 H1          -6.7870    41.5120    21.4630 h2         1 MA2       0.079700
     14 H2          -8.8680    40.2760    21.8880 h1         1 MA2       0.055700
     15 H3          -9.6520    41.0130    19.0260 h1         1 MA2       0.057700
     16 H4         -10.8380    41.8080    21.7290 h1         1 MA2       0.120700
     17 H5          -9.3610    43.5230    19.6580 h1         1 MA2       0.047700
     18 H61         -9.4590    45.3180    21.2730 h1         1 MA2       0.032700
     19 H62        -11.1040    44.8030    20.9030 h1         1 MA2       0.032700
     20 H71        -12.6000    43.1300    17.5470 h1         1 MA2       0.063033
     21 H72        -11.1190    43.8500    18.2280 h1         1 MA2       0.063033
     22 H73        -11.1180    42.1460    17.6790 h1         1 MA2       0.063033
     23 HO1         -6.6720    42.9030    19.6610 ho         1 MA2       0.513000
     24 HO2         -8.7600    38.7230    20.0130 ho         1 MA2       0.521000
     25 HO3        -11.6990    40.0170    19.8910 ho         1 MA2       0.525000
     26 HO6        -10.7170    45.1750    23.1860 ho         1 MA2       0.505000
     27 C7         -11.7140    42.9300    18.1630 c3         1 MA2       0.032900
@<TRIPOS>BOND
     1     1     2 1   
     2     1     7 1   
     3     1    11 1   
     4     1    13 1   
     5     2     3 1   
     6     2     8 1   
     7     2    14 1   
     8     3     4 1   
     9     3     9 1   
    10     3    15 1   
    11     4     5 1   
    12     4    10 1   
    13     4    16 1   
    14     5     6 1   
    15     5    11 1   
    16     5    17 1   
    17     6    12 1   
    18     6    18 1   
    19     6    19 1   
    20     7    23 1   
    21     8    24 1   
    22     9    25 1   
    23    10    27 1   
    24    12    26 1   
    25    20    27 1   
    26    21    27 1   
    27    22    27 1   
@<TRIPOS>SUBSTRUCTURE
     1 MA2         1 TEMP              0 ****  ****    0 ROOT
