@<TRIPOS>MOLECULE
MA2
   27    27     1     0     0
SMALL
abcg2


@<TRIPOS>ATOM
      1 C1          -7.7390    41.7520    20.7930 c6         1 MA2       0.386300
      2 C2          -8.6500    40.5280    20.7950 c6         1 MA2       0.163300
      3 C3          -9.9520    40.8350    20.0640 c6         1 MA2       0.139300
      4 C4         -10.5900    42.0760    20.6870 c6         1 MA2       0.007300
      5 C5          -9.6030    43.2440    20.6990 c6         1 MA2       0.185300
      6 C6         -10.1220    44.4840    21.3950 c3         1 MA2       0.168600
      7 O1          -7.3220    41.9950    19.4900 oh         1 MA2      -0.724000
      8 O2          -7.9500    39.4520    20.2300 oh         1 MA2      -0.702000
      9 O3         -10.7760    39.7030    20.1830 oh         1 MA2      -0.726000
     10 S4         -12.1840    42.4690    19.9000 ss         1 MA2      -0.431000
     11 O5          -8.4090    42.8450    21.3610 os         1 MA2      -0.472000
     12 O6         -10.5430    44.1630    22.6970 oh         1 MA2      -0.708000
     13 H1          -6.8850    41.5740    21.4570 h2         1 MA2       0.079700
     14 H2          -8.9010    40.3280    21.8480 h1         1 MA2       0.055700
     15 H3          -9.7240    41.0410    19.0080 h1         1 MA2       0.057700
     16 H4         -10.8720    41.8380    21.7180 h1         1 MA2       0.120700
     17 H5          -9.3740    43.5370    19.6670 h1         1 MA2       0.047700
     18 H61         -9.3220    45.2360    21.3960 h1         1 MA2       0.032700
     19 H62        -10.9390    44.8910    20.7880 h1         1 MA2       0.032700
     20 H71        -12.6240    43.1050    17.6710 h1         1 MA2       0.063033
     21 H72        -11.1900    43.9590    18.2480 h1         1 MA2       0.063033
     22 H73        -11.0790    42.2580    17.7390 h1         1 MA2       0.063033
     23 HO1         -6.5940    42.6270    19.5060 ho         1 MA2       0.513000
     24 HO2         -8.4860    38.6600    20.3340 ho         1 MA2       0.521000
     25 HO3        -11.6300    39.9210    19.7900 ho         1 MA2       0.525000
     26 HO6        -10.9350    44.9470    23.0900 ho         1 MA2       0.505000
     27 C7         -11.7010    42.9980    18.2380 c3         1 MA2       0.032900
@<TRIPOS>BOND
     1     1     2 1   
     2     1     7 1   
     3     1    11 1   
     4     1    13 1   
     5     2     3 1   
     6     2     8 1   
     7     2    14 1   
     8     3     4 1   
     9     3     9 1   
    10     3    15 1   
    11     4     5 1   
    12     4    10 1   
    13     4    16 1   
    14     5     6 1   
    15     5    11 1   
    16     5    17 1   
    17     6    12 1   
    18     6    18 1   
    19     6    19 1   
    20     7    23 1   
    21     8    24 1   
    22     9    25 1   
    23    10    27 1   
    24    12    26 1   
    25    20    27 1   
    26    21    27 1   
    27    22    27 1   
@<TRIPOS>SUBSTRUCTURE
     1 MA2         1 TEMP              0 ****  ****    0 ROOT
