@<TRIPOS>MOLECULE
MA3
   27    27     1     0     0
SMALL
No Charge or Current Charge


@<TRIPOS>ATOM
      1 C1          -2.5780    43.1750    18.9050 c6         1 MA3       0.383300
      2 C2          -2.9620    41.7000    18.5280 c6         1 MA3       0.164300
      3 C3          -4.4990    41.6050    18.3130 c6         1 MA3       0.147300
      4 C4          -5.2530    42.1200    19.5670 c6         1 MA3       0.034300
      5 C5          -4.7830    43.5690    19.9020 c6         1 MA3       0.182300
      6 C6          -5.4190    44.1320    21.2190 c3         1 MA3       0.159600
      7 O1          -2.8100    44.0970    17.8160 os         1 MA3      -0.462000
      8 O2          -2.2760    41.2080    17.3530 oh         1 MA3      -0.700000
      9 O3          -4.8850    40.2510    18.0130 oh         1 MA3      -0.669000
     10 S4          -7.1080    42.0460    19.2350 sh         1 MA3      -0.469800
     11 O5          -3.3380    43.6000    20.0610 os         1 MA3      -0.467000
     12 O6          -5.0800    43.3730    22.3990 oh         1 MA3      -0.715000
     13 H1          -1.5070    43.1880    19.1580 h2         1 MA3       0.082700
     14 H2          -2.7020    41.0680    19.3900 h1         1 MA3       0.054700
     15 H3          -4.7660    42.2600    17.4690 h1         1 MA3       0.069700
     16 H4          -5.0130    41.4680    20.4200 h1         1 MA3       0.100700
     17 H5          -5.0660    44.2420    19.0790 h1         1 MA3       0.065700
     18 H61         -5.0760    45.1700    21.3320 h1         1 MA3       0.036200
     19 H62         -6.5090    44.1730    21.0940 h1         1 MA3       0.036200
     20 H71         -2.5210    46.0410    17.1090 h1         1 MA3       0.033033
     21 H72         -2.7950    45.9170    18.8590 h1         1 MA3       0.033033
     22 H73         -1.2290    45.4280    18.1640 h1         1 MA3       0.033033
     23 HO2         -2.8350    40.4560    17.0400 ho         1 MA3       0.521000
     24 HO3         -5.8660    40.2300    18.0980 ho         1 MA3       0.466000
     25 HS4         -7.4940    42.3700    20.4960 hs         1 MA3       0.225800
     26 HO6         -5.3970    43.8890    23.1760 ho         1 MA3       0.504000
     27 C7          -2.3150    45.4340    17.9990 c3         1 MA3       0.148900
@<TRIPOS>BOND
     1     1     2 1   
     2     1     7 1   
     3     1    11 1   
     4     1    13 1   
     5     2     3 1   
     6     2     8 1   
     7     2    14 1   
     8     3     4 1   
     9     3     9 1   
    10     3    15 1   
    11     4     5 1   
    12     4    10 1   
    13     4    16 1   
    14     5     6 1   
    15     5    11 1   
    16     5    17 1   
    17     6    12 1   
    18     6    18 1   
    19     6    19 1   
    20     7    27 1   
    21     8    23 1   
    22     9    24 1   
    23    10    25 1   
    24    12    26 1   
    25    20    27 1   
    26    21    27 1   
    27    22    27 1   
@<TRIPOS>SUBSTRUCTURE
     1 MA3         1 TEMP              0 ****  ****    0 ROOT
