@<TRIPOS>MOLECULE
MA3
   27    27     1     0     0
SMALL
bcc


@<TRIPOS>ATOM
      1 C1          -2.6540    43.1950    18.9110 c6         1 MA3       0.336900
      2 C2          -3.0630    41.7760    18.5270 c6         1 MA3       0.141100
      3 C3          -4.5740    41.6860    18.3410 c6         1 MA3       0.124100
      4 C4          -5.2650    42.2210    19.5970 c6         1 MA3      -0.013600
      5 C5          -4.7600    43.6240    19.9360 c6         1 MA3       0.159100
      6 C6          -5.3220    44.1880    21.2230 c3         1 MA3       0.136400
      7 O1          -2.8740    44.0270    17.8230 os         1 MA3      -0.415600
      8 O2          -2.3540    41.4080    17.3750 oh         1 MA3      -0.577800
      9 O3          -4.8770    40.3350    18.1040 oh         1 MA3      -0.606800
     10 S4          -7.0680    42.2180    19.2870 sh         1 MA3      -0.421900
     11 O5          -3.3450    43.6030    20.0580 os         1 MA3      -0.420600
     12 O6          -5.0730    43.3010    22.2860 oh         1 MA3      -0.592800
     13 H1          -1.5930    43.2110    19.2010 h2         1 MA3       0.082700
     14 H2          -2.7950    41.1330    19.3800 h1         1 MA3       0.054700
     15 H3          -4.8650    42.3100    17.4820 h1         1 MA3       0.069700
     16 H4          -5.0680    41.5360    20.4240 h1         1 MA3       0.100700
     17 H5          -5.0680    44.3080    19.1340 h1         1 MA3       0.065700
     18 H61         -4.8620    45.1710    21.3940 h1         1 MA3       0.036200
     19 H62         -6.3930    44.3620    21.0740 h1         1 MA3       0.036200
     20 H71         -2.4270    45.8190    16.9940 h1         1 MA3       0.033033
     21 H72         -2.8470    45.9210    18.7100 h1         1 MA3       0.033033
     22 H73         -1.2650    45.2850    18.2210 h1         1 MA3       0.033033
     23 HO2         -2.5320    40.4790    17.1980 ho         1 MA3       0.422000
     24 HO3         -5.8290    40.2570    17.9690 ho         1 MA3       0.427000
     25 HS4         -7.4650    41.8740    20.5160 hs         1 MA3       0.225800
     26 HO6         -5.5170    43.6390    23.0690 ho         1 MA3       0.405000
     27 C7          -2.3280    45.3220    17.9570 c3         1 MA3       0.125700
@<TRIPOS>BOND
     1     1     2 1   
     2     1     7 1   
     3     1    11 1   
     4     1    13 1   
     5     2     3 1   
     6     2     8 1   
     7     2    14 1   
     8     3     4 1   
     9     3     9 1   
    10     3    15 1   
    11     4     5 1   
    12     4    10 1   
    13     4    16 1   
    14     5     6 1   
    15     5    11 1   
    16     5    17 1   
    17     6    12 1   
    18     6    18 1   
    19     6    19 1   
    20     7    27 1   
    21     8    23 1   
    22     9    24 1   
    23    10    25 1   
    24    12    26 1   
    25    20    27 1   
    26    21    27 1   
    27    22    27 1   
@<TRIPOS>SUBSTRUCTURE
     1 MA3         1 TEMP              0 ****  ****    0 ROOT
