@<TRIPOS>MOLECULE
MA4
   79    81     1     0     0
SMALL
No Charge or Current Charge


@<TRIPOS>ATOM
      1 C1          -0.3780     0.6860    -5.4670 c6         1 MA4       0.364300
      2 C2          -1.0260    -0.2520    -6.5460 c6         1 MA4       0.115300
      3 C3           0.0860    -1.0990    -7.2280 c6         1 MA4       0.105300
      4 C4           1.2000    -0.1740    -7.7960 c6         1 MA4       0.151300
      5 C5           1.7580     0.7260    -6.6480 c6         1 MA4       0.168300
      6 C6           2.8440     1.7330    -7.1540 c3         1 MA4       0.169600
      7 O2          -2.0440    -1.1260    -5.9950 oh         1 MA4      -0.725000
      8 O3          -0.4780    -1.9180    -8.2670 oh         1 MA4      -0.668000
      9 O5           0.6740     1.4870    -6.0420 os         1 MA4      -0.454000
     10 O6           3.3410     2.6100    -6.1200 oh         1 MA4      -0.719000
     11 O1           0.1630    -0.0590    -4.3550 os         1 MA4      -0.497000
     12 O4           2.2200    -0.9830    -8.4070 oh         1 MA4      -0.719000
     13 C10         -1.0190    -0.3080    -0.2640 c6         1 MA4       0.364300
     14 C20         -2.1400     0.0880    -1.2790 c6         1 MA4       0.111300
     15 C30         -1.6890    -0.3460    -2.6980 c6         1 MA4       0.166300
     16 C40         -0.3190     0.3280    -3.0440 c6         1 MA4       0.155300
     17 C50          0.7170    -0.0360    -1.9380 c6         1 MA4       0.161300
     18 C60          2.0950     0.6690    -2.1680 c3         1 MA4       0.163600
     19 O20         -3.4260    -0.4960    -0.9550 oh         1 MA4      -0.725000
     20 O30         -2.7330    -0.0450    -3.6430 oh         1 MA4      -0.728000
     21 O50          0.2080     0.3520    -0.6320 os         1 MA4      -0.462000
     22 O60          3.0630     0.3810    -1.1370 oh         1 MA4      -0.712000
     23 C21         -1.1110     0.1760     3.4490 c3         1 MA4      -0.081400
     24 C31         -0.2490    -0.1990     4.6760 c3         1 MA4      -0.073400
     25 C41         -0.8490     0.2960     6.0100 c3         1 MA4      -0.075400
     26 C51          0.0130    -0.0780     7.2360 c3         1 MA4      -0.074400
     27 C61         -0.5910     0.4160     8.5720 c3         1 MA4      -0.071400
     28 C12          0.2850     0.1660     9.8390 c6         1 MA4      -0.058700
     29 C22         -0.3470     0.8500    11.0860 c6         1 MA4      -0.070900
     30 C32          0.5090     0.6300    12.3570 c6         1 MA4      -0.072900
     31 C42          0.7360    -0.8760    12.6250 c6         1 MA4      -0.074400
     32 C52          1.3730    -1.5670    11.3960 c6         1 MA4      -0.072900
     33 C62          0.5220    -1.3480    10.1200 c6         1 MA4      -0.070900
     34 H11         -1.1650     1.3680    -5.1080 h2         1 MA4       0.083700
     35 H21         -1.4740     0.4040    -7.3080 h1         1 MA4       0.089700
     36 H31          0.5370    -1.7430    -6.4560 h1         1 MA4       0.056700
     37 H41          0.7480     0.4840    -8.5540 h1         1 MA4       0.049700
     38 H51          2.2210     0.0890    -5.8810 h1         1 MA4       0.075700
     39 H61          2.4050     2.3230    -7.9700 h1         1 MA4       0.037700
     40 H62          3.6740     1.1550    -7.5820 h1         1 MA4       0.037700
     41 HO2         -2.2940    -0.7400    -5.1020 ho         1 MA4       0.537000
     42 HO3         -1.3460    -2.2170    -7.9050 ho         1 MA4       0.464000
     43 HO6          3.9590     3.2440    -6.5530 ho         1 MA4       0.505000
     44 HO4          1.7220    -1.7190    -8.8380 ho         1 MA4       0.526000
     45 H101        -0.8720    -1.3990    -0.2870 h2         1 MA4       0.034700
     46 H201        -2.2190     1.1860    -1.2640 h1         1 MA4       0.068700
     47 H301        -1.5270    -1.4350    -2.6780 h1         1 MA4       0.055700
     48 H401        -0.4450     1.4210    -3.0260 h1         1 MA4       0.065700
     49 H501         0.8860    -1.1230    -1.9440 h1         1 MA4       0.058700
     50 H601         2.4830     0.3520    -3.1460 h1         1 MA4       0.045700
     51 H602         1.9160     1.7520    -2.2280 h1         1 MA4       0.045700
     52 HO20        -3.5520    -0.3610     0.0160 ho         1 MA4       0.527000
     53 HO30        -3.5600    -0.1070    -3.0970 ho         1 MA4       0.529000
     54 HO60         3.8650     0.9200    -1.3350 ho         1 MA4       0.506000
     55 H111        -0.4110    -1.4120     2.1440 h1         1 MA4       0.035200
     56 H112         0.4890     0.1190     1.9850 h1         1 MA4       0.035200
     57 H211        -1.2240     1.2660     3.4060 hc         1 MA4       0.052200
     58 H212        -2.1140    -0.2500     3.5680 hc         1 MA4       0.052200
     59 H311        -0.1340    -1.2900     4.7150 hc         1 MA4       0.039200
     60 H312         0.7560     0.2250     4.5530 hc         1 MA4       0.039200
     61 H411        -0.9640     1.3870     5.9700 hc         1 MA4       0.038700
     62 H412        -1.8530    -0.1280     6.1330 hc         1 MA4       0.038700
     63 H511         0.1270    -1.1680     7.2630 hc         1 MA4       0.038200
     64 H512         1.0170     0.3490     7.1150 hc         1 MA4       0.038200
     65 H611        -0.7800     1.4920     8.4780 hc         1 MA4       0.037700
     66 H612        -1.5740    -0.0530     8.7060 hc         1 MA4       0.037700
     67 H121         1.2570     0.6410     9.6440 hc         1 MA4       0.044700
     68 H221        -0.4600     1.9270    10.9050 hc         1 MA4       0.037450
     69 H222        -1.3590     0.4560    11.2540 hc         1 MA4       0.037450
     70 H321         1.4780     1.1370    12.2430 hc         1 MA4       0.037700
     71 H322         0.0160     1.0930    13.2230 hc         1 MA4       0.037700
     72 H421         1.3820    -1.0060    13.5040 hc         1 MA4       0.037200
     73 H422        -0.2220    -1.3580    12.8670 hc         1 MA4       0.037200
     74 H521         2.3870    -1.1750    11.2360 hc         1 MA4       0.037700
     75 H522         1.4830    -2.6430    11.5900 hc         1 MA4       0.037700
     76 H621        -0.4430    -1.8630    10.2290 hc         1 MA4       0.037450
     77 H622         1.0340    -1.8200     9.2720 hc         1 MA4       0.037450
     78 O10         -1.3950     0.0880     1.0650 os         1 MA4      -0.456000
     79 C11         -0.5100    -0.3190     2.1200 c3         1 MA4       0.165600
@<TRIPOS>BOND
     1     1     2 1   
     2     1     9 1   
     3     1    11 1   
     4     1    34 1   
     5     2     3 1   
     6     2     7 1   
     7     2    35 1   
     8     3     4 1   
     9     3     8 1   
    10     3    36 1   
    11     4     5 1   
    12     4    12 1   
    13     4    37 1   
    14     5     6 1   
    15     5     9 1   
    16     5    38 1   
    17     6    10 1   
    18     6    39 1   
    19     6    40 1   
    20     7    41 1   
    21     8    42 1   
    22    10    43 1   
    23    11    16 1   
    24    12    44 1   
    25    13    14 1   
    26    13    21 1   
    27    13    45 1   
    28    13    78 1   
    29    14    15 1   
    30    14    19 1   
    31    14    46 1   
    32    15    16 1   
    33    15    20 1   
    34    15    47 1   
    35    16    17 1   
    36    16    48 1   
    37    17    18 1   
    38    17    21 1   
    39    17    49 1   
    40    18    22 1   
    41    18    50 1   
    42    18    51 1   
    43    19    52 1   
    44    20    53 1   
    45    22    54 1   
    46    23    24 1   
    47    23    57 1   
    48    23    58 1   
    49    23    79 1   
    50    24    25 1   
    51    24    59 1   
    52    24    60 1   
    53    25    26 1   
    54    25    61 1   
    55    25    62 1   
    56    26    27 1   
    57    26    63 1   
    58    26    64 1   
    59    27    28 1   
    60    27    65 1   
    61    27    66 1   
    62    28    29 1   
    63    28    33 1   
    64    28    67 1   
    65    29    30 1   
    66    29    68 1   
    67    29    69 1   
    68    30    31 1   
    69    30    70 1   
    70    30    71 1   
    71    31    32 1   
    72    31    72 1   
    73    31    73 1   
    74    32    33 1   
    75    32    74 1   
    76    32    75 1   
    77    33    76 1   
    78    33    77 1   
    79    55    79 1   
    80    56    79 1   
    81    78    79 1   
@<TRIPOS>SUBSTRUCTURE
     1 MA4         1 TEMP              0 ****  ****    0 ROOT
