@<TRIPOS>MOLECULE
MA4
   79    81     1     0     0
SMALL
abcg2


@<TRIPOS>ATOM
      1 C1          -0.3600     0.9180    -5.3580 c6         1 MA4       0.364300
      2 C2          -1.0520     0.2410    -6.5410 c6         1 MA4       0.115300
      3 C3          -0.1550    -0.8600    -7.1020 c6         1 MA4       0.105300
      4 C4           1.2060    -0.2730    -7.4590 c6         1 MA4       0.151300
      5 C5           1.8000     0.4280    -6.2360 c6         1 MA4       0.168300
      6 C6           3.0870     1.1560    -6.5620 c3         1 MA4       0.169600
      7 O2          -2.3380    -0.2210    -6.2250 oh         1 MA4      -0.725000
      8 O3          -0.6950    -1.4240    -8.2750 oh         1 MA4      -0.668000
      9 O5           0.8880     1.4010    -5.7430 os         1 MA4      -0.454000
     10 O6           3.6220     1.6860    -5.3730 oh         1 MA4      -0.719000
     11 O1          -0.2510    -0.0080    -4.3120 os         1 MA4      -0.497000
     12 O4           2.1140    -1.2640    -7.8720 oh         1 MA4      -0.719000
     13 C10         -0.8340    -0.3480    -0.2470 c6         1 MA4       0.364300
     14 C20         -2.0650    -0.5650    -1.1210 c6         1 MA4       0.111300
     15 C30         -1.6170    -0.8020    -2.5560 c6         1 MA4       0.166300
     16 C40         -0.7140     0.3330    -3.0260 c6         1 MA4       0.155300
     17 C50          0.4470     0.5040    -2.0350 c6         1 MA4       0.161300
     18 C60          1.3330     1.6830    -2.3760 c3         1 MA4       0.163600
     19 O20         -2.7960    -1.6930    -0.7140 oh         1 MA4      -0.725000
     20 O30         -2.7140    -0.8840    -3.4360 oh         1 MA4      -0.728000
     21 O50         -0.0820     0.7300    -0.7450 os         1 MA4      -0.462000
     22 O60          2.3830     1.7400    -1.4370 oh         1 MA4      -0.712000
     23 C21         -0.8720     0.2290     3.3640 c3         1 MA4      -0.081400
     24 C31         -0.0240    -0.1790     4.5630 c3         1 MA4      -0.073400
     25 C41         -0.5210     0.4360     5.8650 c3         1 MA4      -0.075400
     26 C51          0.2180    -0.0720     7.0960 c3         1 MA4      -0.074400
     27 C61         -0.2600     0.5920     8.3830 c3         1 MA4      -0.071400
     28 C12          0.4390     0.1130     9.6550 c6         1 MA4      -0.058700
     29 C22          0.0770     1.0080    10.8410 c6         1 MA4      -0.070900
     30 C32          0.7440     0.5560    12.1360 c6         1 MA4      -0.072900
     31 C42          0.4140    -0.8990    12.4500 c6         1 MA4      -0.074400
     32 C52          0.7840    -1.8040    11.2800 c6         1 MA4      -0.072900
     33 C62          0.1180    -1.3460     9.9860 c6         1 MA4      -0.070900
     34 H11         -0.9370     1.7940    -5.0350 h2         1 MA4       0.083700
     35 H21         -1.1780     1.0050    -7.3180 h1         1 MA4       0.089700
     36 H31         -0.0100    -1.6330    -6.3320 h1         1 MA4       0.056700
     37 H41          1.0550     0.4800    -8.2500 h1         1 MA4       0.049700
     38 H51          2.0070    -0.3250    -5.4630 h1         1 MA4       0.075700
     39 H61          2.8740     1.9390    -7.3030 h1         1 MA4       0.037700
     40 H62          3.7740     0.4460    -7.0340 h1         1 MA4       0.037700
     41 HO2         -2.3350    -0.6360    -5.3470 ho         1 MA4       0.537000
     42 HO3         -1.5340    -1.8390    -8.0500 ho         1 MA4       0.464000
     43 HO6          4.4720     2.0830    -5.5810 ho         1 MA4       0.505000
     44 HO4          1.7380    -1.7170    -8.6340 ho         1 MA4       0.526000
     45 H101        -0.2170    -1.2670    -0.2510 h2         1 MA4       0.034700
     46 H201        -2.6770     0.3490    -1.0850 h1         1 MA4       0.068700
     47 H301        -1.0300    -1.7330    -2.5830 h1         1 MA4       0.055700
     48 H401        -1.2940     1.2670    -3.0550 h1         1 MA4       0.065700
     49 H501         1.0520    -0.4170    -2.0430 h1         1 MA4       0.058700
     50 H601         1.7150     1.5600    -3.3920 h1         1 MA4       0.045700
     51 H602         0.7260     2.6000    -2.3660 h1         1 MA4       0.045700
     52 HO20        -3.1960    -1.5050     0.1410 ho         1 MA4       0.527000
     53 HO30        -3.2110    -1.6850    -3.2370 ho         1 MA4       0.529000
     54 HO60         3.0450     2.3500    -1.7740 ho         1 MA4       0.506000
     55 H111        -0.1860    -1.4090     2.1400 h1         1 MA4       0.035200
     56 H112         0.6520     0.1200     1.8490 h1         1 MA4       0.035200
     57 H211        -0.9260     1.3200     3.3010 hc         1 MA4       0.052200
     58 H212        -1.8950    -0.1310     3.5090 hc         1 MA4       0.052200
     59 H311        -0.0290    -1.2700     4.6530 hc         1 MA4       0.039200
     60 H312         1.0200     0.1090     4.4010 hc         1 MA4       0.039200
     61 H411        -0.4310     1.5270     5.8080 hc         1 MA4       0.038700
     62 H412        -1.5910     0.2270     5.9780 hc         1 MA4       0.038700
     63 H511         0.0910    -1.1570     7.1610 hc         1 MA4       0.038200
     64 H512         1.2940     0.1010     6.9790 hc         1 MA4       0.038200
     65 H611        -0.1180     1.6750     8.2900 hc         1 MA4       0.037700
     66 H612        -1.3410     0.4400     8.4900 hc         1 MA4       0.037700
     67 H121         1.5240     0.1930     9.4980 hc         1 MA4       0.044700
     68 H221         0.3520     2.0440    10.6200 hc         1 MA4       0.037450
     69 H222        -1.0120     1.0000    10.9730 hc         1 MA4       0.037450
     70 H321         1.8300     0.6670    12.0400 hc         1 MA4       0.037700
     71 H322         0.4380     1.2030    12.9630 hc         1 MA4       0.037700
     72 H421         0.9310    -1.2200    13.3580 hc         1 MA4       0.037200
     73 H422        -0.6590    -0.9910    12.6540 hc         1 MA4       0.037200
     74 H521         1.8720    -1.7970    11.1500 hc         1 MA4       0.037700
     75 H522         0.5060    -2.8390    11.4970 hc         1 MA4       0.037700
     76 H621        -0.9700    -1.4530    10.0840 hc         1 MA4       0.037450
     77 H622         0.4200    -2.0020     9.1660 hc         1 MA4       0.037450
     78 O10         -1.2520    -0.0330     1.0250 os         1 MA4      -0.456000
     79 C11         -0.3270    -0.3230     2.0640 c3         1 MA4       0.165600
@<TRIPOS>BOND
     1     1     2 1   
     2     1     9 1   
     3     1    11 1   
     4     1    34 1   
     5     2     3 1   
     6     2     7 1   
     7     2    35 1   
     8     3     4 1   
     9     3     8 1   
    10     3    36 1   
    11     4     5 1   
    12     4    12 1   
    13     4    37 1   
    14     5     6 1   
    15     5     9 1   
    16     5    38 1   
    17     6    10 1   
    18     6    39 1   
    19     6    40 1   
    20     7    41 1   
    21     8    42 1   
    22    10    43 1   
    23    11    16 1   
    24    12    44 1   
    25    13    14 1   
    26    13    21 1   
    27    13    45 1   
    28    13    78 1   
    29    14    15 1   
    30    14    19 1   
    31    14    46 1   
    32    15    16 1   
    33    15    20 1   
    34    15    47 1   
    35    16    17 1   
    36    16    48 1   
    37    17    18 1   
    38    17    21 1   
    39    17    49 1   
    40    18    22 1   
    41    18    50 1   
    42    18    51 1   
    43    19    52 1   
    44    20    53 1   
    45    22    54 1   
    46    23    24 1   
    47    23    57 1   
    48    23    58 1   
    49    23    79 1   
    50    24    25 1   
    51    24    59 1   
    52    24    60 1   
    53    25    26 1   
    54    25    61 1   
    55    25    62 1   
    56    26    27 1   
    57    26    63 1   
    58    26    64 1   
    59    27    28 1   
    60    27    65 1   
    61    27    66 1   
    62    28    29 1   
    63    28    33 1   
    64    28    67 1   
    65    29    30 1   
    66    29    68 1   
    67    29    69 1   
    68    30    31 1   
    69    30    70 1   
    70    30    71 1   
    71    31    32 1   
    72    31    72 1   
    73    31    73 1   
    74    32    33 1   
    75    32    74 1   
    76    32    75 1   
    77    33    76 1   
    78    33    77 1   
    79    55    79 1   
    80    56    79 1   
    81    78    79 1   
@<TRIPOS>SUBSTRUCTURE
     1 MA4         1 TEMP              0 ****  ****    0 ROOT
