@<TRIPOS>MOLECULE
MA5
   67    69     1     0     0
SMALL
abcg2


@<TRIPOS>ATOM
      1 C42          7.4550     0.3620     0.8720 c6         1 MA5      -0.071400
      2 C32          8.6490     1.1630     0.3660 c6         1 MA5      -0.073400
      3 C22          9.1110     0.6690    -1.0000 c6         1 MA5      -0.074400
      4 C12          7.9630     0.6860    -2.0030 c6         1 MA5      -0.073400
      5 C62          6.7670    -0.1130    -1.4920 c6         1 MA5      -0.071400
      6 C52          6.2910     0.3690    -0.1200 c6         1 MA5      -0.058700
      7 C61          5.1250    -0.4680     0.4110 c3         1 MA5      -0.079400
      8 C11          3.8210    -0.1960    -0.3120 c3         1 MA5       0.164600
      9 O10          2.8450    -1.1220     0.1500 os         1 MA5      -0.456000
     10 C10          1.5500    -0.8380    -0.2160 c6         1 MA5       0.364300
     11 C20          0.7360    -2.1270    -0.1770 c6         1 MA5       0.112300
     12 O20          1.1660    -3.0460    -1.1490 oh         1 MA5      -0.726000
     13 C30         -0.7200    -1.8000    -0.4710 c6         1 MA5       0.162300
     14 O30         -1.5490    -2.9290    -0.3150 oh         1 MA5      -0.729000
     15 O50          1.0230     0.0790     0.7100 os         1 MA5      -0.464000
     16 C50         -0.2900     0.5010     0.4070 c6         1 MA5       0.164300
     17 C60         -0.6640     1.5740     1.4070 c3         1 MA5       0.164600
     18 O60          0.2160     2.6620     1.2470 oh         1 MA5      -0.714000
     19 C40         -1.2300    -0.7120     0.4680 c6         1 MA5       0.154300
     20 O1          -2.5330    -0.3700     0.0520 os         1 MA5      -0.497000
     21 C1          -3.5910    -0.4330     0.9680 c6         1 MA5       0.365300
     22 O5          -4.0250     0.8380     1.3360 os         1 MA5      -0.455000
     23 C5          -4.5440     1.6470     0.2880 c6         1 MA5       0.168300
     24 C6          -4.9470     2.9680     0.9080 c3         1 MA5       0.169600
     25 O6          -3.7990     3.6020     1.4180 oh         1 MA5      -0.720000
     26 C4          -5.7260     0.9480    -0.3860 c6         1 MA5       0.150300
     27 O4          -6.1450     1.7550    -1.4590 oh         1 MA5      -0.719000
     28 C3          -5.3040    -0.4410    -0.8500 c6         1 MA5       0.107300
     29 O3          -6.4400    -1.0710    -1.3930 oh         1 MA5      -0.667000
     30 C2          -4.7390    -1.2200     0.3350 c6         1 MA5       0.117300
     31 O2          -4.3820    -2.5320    -0.0070 oh         1 MA5      -0.727000
     32 H421         7.1200     0.7570     1.8350 hc         1 MA5       0.038450
     33 H422         7.7630    -0.6740     1.0550 hc         1 MA5       0.038450
     34 H321         8.3680     2.2200     0.2920 hc         1 MA5       0.038700
     35 H322         9.4690     1.1110     1.0870 hc         1 MA5       0.038700
     36 H221         9.9440     1.2760    -1.3640 hc         1 MA5       0.037700
     37 H222         9.4920    -0.3550    -0.9050 hc         1 MA5       0.037700
     38 H121         7.6560     1.7210    -2.1870 hc         1 MA5       0.038700
     39 H122         8.2910     0.2870    -2.9660 hc         1 MA5       0.038700
     40 H621         7.0490    -1.1700    -1.4130 hc         1 MA5       0.038450
     41 H622         5.9550    -0.0640    -2.2220 hc         1 MA5       0.038450
     42 H52          5.9500     1.4100    -0.2230 hc         1 MA5       0.047700
     43 H611         4.9830    -0.2590     1.4760 hc         1 MA5       0.053200
     44 H612         5.3780    -1.5310     0.3280 hc         1 MA5       0.053200
     45 H111         3.9360    -0.3020    -1.3970 h1         1 MA5       0.036700
     46 H112         3.5020     0.8340    -0.1170 h1         1 MA5       0.036700
     47 H10          1.5040    -0.4080    -1.2350 h2         1 MA5       0.034700
     48 H20          0.8080    -2.5460     0.8380 h1         1 MA5       0.068700
     49 H3           2.0340    -3.3760    -0.8960 ho         1 MA5       0.527000
     50 H30         -0.7870    -1.4150    -1.5010 h1         1 MA5       0.055700
     51 H2          -1.3180    -3.5790    -0.9890 ho         1 MA5       0.530000
     52 H50         -0.3300     0.9230    -0.6110 h1         1 MA5       0.059700
     53 H601        -1.7010     1.8740     1.2410 h1         1 MA5       0.044700
     54 H602        -0.6080     1.1480     2.4200 h1         1 MA5       0.044700
     55 H60         -0.0980     3.3790     1.8030 ho         1 MA5       0.507000
     56 H40         -1.2400    -1.0990     1.4970 h1         1 MA5       0.066700
     57 H1          -3.2650    -0.9210     1.8940 h2         1 MA5       0.084700
     58 H5          -3.7690     1.8310    -0.4690 h1         1 MA5       0.075700
     59 H61         -5.6930     2.7780     1.6910 h1         1 MA5       0.037200
     60 H62         -5.4350     3.5740     0.1380 h1         1 MA5       0.037200
     61 HO6         -4.0630     4.4560     1.7730 ho         1 MA5       0.505000
     62 H7          -6.5310     0.8310     0.3580 h1         1 MA5       0.048700
     63 HO4         -6.8950     1.3250    -1.8840 ho         1 MA5       0.525000
     64 H6          -4.5220    -0.3260    -1.6160 h1         1 MA5       0.057700
     65 HO3         -6.1690    -1.9240    -1.7490 ho         1 MA5       0.464000
     66 H4          -5.5270    -1.2980     1.0950 h1         1 MA5       0.087700
     67 HO2         -3.4630    -2.5580    -0.3180 ho         1 MA5       0.537000
@<TRIPOS>BOND
     1     1     2 1   
     2     1     6 1   
     3     1    32 1   
     4     1    33 1   
     5     2     3 1   
     6     2    34 1   
     7     2    35 1   
     8     3     4 1   
     9     3    36 1   
    10     3    37 1   
    11     4     5 1   
    12     4    38 1   
    13     4    39 1   
    14     5     6 1   
    15     5    40 1   
    16     5    41 1   
    17     6     7 1   
    18     6    42 1   
    19     7     8 1   
    20     7    43 1   
    21     7    44 1   
    22     8     9 1   
    23     8    45 1   
    24     8    46 1   
    25     9    10 1   
    26    10    11 1   
    27    10    15 1   
    28    10    47 1   
    29    11    12 1   
    30    11    13 1   
    31    11    48 1   
    32    12    49 1   
    33    13    14 1   
    34    13    19 1   
    35    13    50 1   
    36    14    51 1   
    37    15    16 1   
    38    16    17 1   
    39    16    19 1   
    40    16    52 1   
    41    17    18 1   
    42    17    53 1   
    43    17    54 1   
    44    18    55 1   
    45    19    20 1   
    46    19    56 1   
    47    20    21 1   
    48    21    22 1   
    49    21    30 1   
    50    21    57 1   
    51    22    23 1   
    52    23    24 1   
    53    23    26 1   
    54    23    58 1   
    55    24    25 1   
    56    24    59 1   
    57    24    60 1   
    58    25    61 1   
    59    26    27 1   
    60    26    28 1   
    61    26    62 1   
    62    27    63 1   
    63    28    29 1   
    64    28    30 1   
    65    28    64 1   
    66    29    65 1   
    67    30    31 1   
    68    30    66 1   
    69    31    67 1   
@<TRIPOS>SUBSTRUCTURE
     1 MA5         1 TEMP              0 ****  ****    0 ROOT
