@<TRIPOS>MOLECULE
MA5
   67    69     1     0     0
SMALL
No Charge or Current Charge


@<TRIPOS>ATOM
      1 C42          7.7960    -0.2860     0.7380 c6         1 MA5      -0.071400
      2 C32          9.0100     0.6180     0.4060 c6         1 MA5      -0.073400
      3 C22          9.2600     0.6790    -1.1190 c6         1 MA5      -0.074400
      4 C12          7.9910     1.1480    -1.8710 c6         1 MA5      -0.073400
      5 C62          6.7740     0.2490    -1.5400 c6         1 MA5      -0.071400
      6 C52          6.5120     0.1790    -0.0060 c6         1 MA5      -0.058700
      7 C61          5.3020    -0.7370     0.3540 c3         1 MA5      -0.079400
      8 C11          3.9420    -0.2820    -0.2130 c3         1 MA5       0.164600
      9 O10          2.9370    -1.1700     0.3020 os         1 MA5      -0.456000
     10 C10          1.5920    -0.9240    -0.1380 c6         1 MA5       0.364300
     11 C20          0.6410    -2.0430     0.3970 c6         1 MA5       0.112300
     12 O20          1.0420    -3.3720    -0.0180 oh         1 MA5      -0.726000
     13 C30         -0.7990    -1.7350    -0.0900 c6         1 MA5       0.162300
     14 O30         -1.6840    -2.7860     0.3410 oh         1 MA5      -0.729000
     15 O50          1.1490     0.3530     0.3610 os         1 MA5      -0.464000
     16 C50         -0.1820     0.7310    -0.0880 c6         1 MA5       0.164300
     17 C60         -0.4970     2.1710     0.4370 c3         1 MA5       0.164600
     18 O60          0.4780     3.1550     0.0280 oh         1 MA5      -0.714000
     19 C40         -1.2290    -0.3140     0.4040 c6         1 MA5       0.154300
     20 O1          -2.5620     0.0380    -0.0410 os         1 MA5      -0.497000
     21 C1          -3.6470    -0.4700     0.7650 c6         1 MA5       0.365300
     22 O5          -4.2900     0.6390     1.4260 os         1 MA5      -0.455000
     23 C5          -4.9510     1.5810     0.5350 c6         1 MA5       0.168300
     24 C6          -5.5290     2.7530     1.3960 c3         1 MA5       0.169600
     25 O6          -4.5340     3.4170     2.2040 oh         1 MA5      -0.720000
     26 C4          -6.0570     0.8470    -0.2890 c6         1 MA5       0.150300
     27 O4          -6.7190     1.7200    -1.2210 oh         1 MA5      -0.719000
     28 C3          -5.4160    -0.3390    -1.0660 c6         1 MA5       0.107300
     29 O3          -6.4140    -1.0630    -1.8090 oh         1 MA5      -0.667000
     30 C2          -4.6780    -1.2930    -0.0850 c6         1 MA5       0.117300
     31 O2          -4.0620    -2.3790    -0.8220 oh         1 MA5      -0.727000
     32 H421         7.6250    -0.2800     1.8230 hc         1 MA5       0.038450
     33 H422         8.0290    -1.3250     0.4660 hc         1 MA5       0.038450
     34 H321         8.8340     1.6310     0.7950 hc         1 MA5       0.038700
     35 H322         9.9060     0.2390     0.9160 hc         1 MA5       0.038700
     36 H221        10.0950     1.3610    -1.3330 hc         1 MA5       0.037700
     37 H222         9.5630    -0.3110    -1.4860 hc         1 MA5       0.037700
     38 H121         7.7660     2.1900    -1.6010 hc         1 MA5       0.038700
     39 H122         8.1760     1.1410    -2.9530 hc         1 MA5       0.038700
     40 H621         6.9460    -0.7620    -1.9350 hc         1 MA5       0.038450
     41 H622         5.8930     0.6430    -2.0620 hc         1 MA5       0.038450
     42 H52          6.2550     1.1880     0.3500 hc         1 MA5       0.047700
     43 H611         5.2070    -0.7930     1.4460 hc         1 MA5       0.053200
     44 H612         5.4970    -1.7600     0.0100 hc         1 MA5       0.053200
     45 H111         3.9610    -0.3190    -1.3100 h1         1 MA5       0.036700
     46 H112         3.7450     0.7530     0.0980 h1         1 MA5       0.036700
     47 H10          1.5680    -0.9190    -1.2390 h2         1 MA5       0.034700
     48 H20          0.6520    -1.9820     1.4960 h1         1 MA5       0.068700
     49 H3           2.0180    -3.4230     0.1300 ho         1 MA5       0.527000
     50 H30         -0.7800    -1.7120    -1.1910 h1         1 MA5       0.055700
     51 H2          -1.0900    -3.5810     0.3840 ho         1 MA5       0.530000
     52 H50         -0.1900     0.7610    -1.1880 h1         1 MA5       0.059700
     53 H601        -1.4930     2.4580     0.0730 h1         1 MA5       0.044700
     54 H602        -0.5540     2.1280     1.5330 h1         1 MA5       0.044700
     55 H60          0.2300     4.0040     0.4620 ho         1 MA5       0.507000
     56 H40         -1.2120    -0.2980     1.5050 h1         1 MA5       0.066700
     57 H1          -3.2480    -1.1420     1.5420 h2         1 MA5       0.084700
     58 H5          -4.2070     2.0050    -0.1550 h1         1 MA5       0.075700
     59 H61         -6.3230     2.3440     2.0360 h1         1 MA5       0.037200
     60 H62         -6.0010     3.4770     0.7170 h1         1 MA5       0.037200
     61 HO6         -5.0090     4.0820     2.7550 ho         1 MA5       0.505000
     62 H7          -6.7930     0.4370     0.4190 h1         1 MA5       0.048700
     63 HO4         -7.1170     1.1080    -1.8890 ho         1 MA5       0.525000
     64 H6          -4.6670     0.0720    -1.7600 h1         1 MA5       0.057700
     65 HO3         -5.9990    -1.9380    -1.9950 ho         1 MA5       0.464000
     66 H4          -5.4190    -1.6990     0.6210 h1         1 MA5       0.087700
     67 HO2         -3.1580    -2.5250    -0.4070 ho         1 MA5       0.537000
@<TRIPOS>BOND
     1     1     2 1   
     2     1     6 1   
     3     1    32 1   
     4     1    33 1   
     5     2     3 1   
     6     2    34 1   
     7     2    35 1   
     8     3     4 1   
     9     3    36 1   
    10     3    37 1   
    11     4     5 1   
    12     4    38 1   
    13     4    39 1   
    14     5     6 1   
    15     5    40 1   
    16     5    41 1   
    17     6     7 1   
    18     6    42 1   
    19     7     8 1   
    20     7    43 1   
    21     7    44 1   
    22     8     9 1   
    23     8    45 1   
    24     8    46 1   
    25     9    10 1   
    26    10    11 1   
    27    10    15 1   
    28    10    47 1   
    29    11    12 1   
    30    11    13 1   
    31    11    48 1   
    32    12    49 1   
    33    13    14 1   
    34    13    19 1   
    35    13    50 1   
    36    14    51 1   
    37    15    16 1   
    38    16    17 1   
    39    16    19 1   
    40    16    52 1   
    41    17    18 1   
    42    17    53 1   
    43    17    54 1   
    44    18    55 1   
    45    19    20 1   
    46    19    56 1   
    47    20    21 1   
    48    21    22 1   
    49    21    30 1   
    50    21    57 1   
    51    22    23 1   
    52    23    24 1   
    53    23    26 1   
    54    23    58 1   
    55    24    25 1   
    56    24    59 1   
    57    24    60 1   
    58    25    61 1   
    59    26    27 1   
    60    26    28 1   
    61    26    62 1   
    62    27    63 1   
    63    28    29 1   
    64    28    30 1   
    65    28    64 1   
    66    29    65 1   
    67    30    31 1   
    68    30    66 1   
    69    31    67 1   
@<TRIPOS>SUBSTRUCTURE
     1 MA5         1 TEMP              0 ****  ****    0 ROOT
