@<TRIPOS>MOLECULE
MA8
   57    58     1     0     0
SMALL
abcg2


@<TRIPOS>ATOM
      1 O1          -0.5580    -1.7490    -1.3340 os         1 MA8      -0.484000
      2 C1          -0.8470    -0.3840    -1.3420 c6         1 MA8       0.368300
      3 C2           1.6500    -1.4770    -0.4280 c6         1 MA8       0.123300
      4 C3           0.8080    -2.0770    -1.5490 c6         1 MA8       0.124300
      5 O2           2.9950    -1.7930    -0.6790 oh         1 MA8      -0.705000
      6 O3           2.1950     0.6360     0.6450 oh         1 MA8      -0.646000
      7 O4          -0.5290     0.2130    -2.5540 os         1 MA8      -0.474000
      8 N1          -0.2840     1.7690    -0.2960 ns         1 MA8      -0.482900
      9 C4           0.8790    -3.5920    -1.6100 c3         1 MA8       0.171600
     10 C5          -0.0570     0.3450    -0.2480 c6         1 MA8       0.062700
     11 C6           1.4350     0.0370    -0.3760 c6         1 MA8       0.115300
     12 O5           0.1340    -4.1160    -2.6840 oh         1 MA8      -0.714000
     13 C7          -1.6600     2.5580    -3.9130 c6         1 MA8       0.167300
     14 C8          -0.8920     2.4610    -5.2300 c6         1 MA8       0.152300
     15 C9          -1.4860     0.0700    -3.5850 c6         1 MA8       0.114300
     16 C10         -2.4240     1.2840    -3.5480 c6         1 MA8       0.128300
     17 O6           0.1670    -1.0990    -4.9450 oh         1 MA8      -0.710000
     18 O7           0.6770     1.1850    -6.4590 oh         1 MA8      -0.724500
     19 O8          -3.5150     1.1260    -4.4230 oh         1 MA8      -0.710000
     20 O9          -1.8040     2.4170    -6.2990 oh         1 MA8      -0.711000
     21 C11          0.0300     1.2430    -5.2080 c6         1 MA8       0.167300
     22 C12         -0.7540    -0.0330    -4.9200 c6         1 MA8       0.128300
     23 O10         -2.4990     3.6870    -3.8760 oh         1 MA8      -0.724500
     24 C13         -1.3790     2.3590     0.2030 c          1 MA8       0.545100
     25 O11         -2.2860     1.7410     0.7450 o          1 MA8      -0.621100
     26 C14         -1.4450     3.8800     0.0660 c3         1 MA8       0.103500
     27 N2          -2.6640     4.3320    -0.5730 n8         1 MA8      -1.001200
     28 C15         -1.3540     4.5130     1.4530 c3         1 MA8       0.082600
     29 S1           0.1780     4.1190     2.3490 sh         1 MA8      -0.447800
     30 H1          -1.9200    -0.3150    -1.1300 h2         1 MA8       0.086700
     31 H2           1.3130    -1.9080     0.5310 h1         1 MA8       0.037700
     32 H3           1.1470    -1.6720    -2.5110 h1         1 MA8       0.089700
     33 HA           3.5320    -1.3930     0.0130 ho         1 MA8       0.520000
     34 HB           1.8520     0.3550     1.5020 ho         1 MA8       0.444000
     35 HC           0.4110     2.3440    -0.7430 hn         1 MA8       0.336500
     36 H4C1         0.5580    -4.0130    -0.6470 h1         1 MA8       0.058700
     37 H4C2         1.9150    -3.8940    -1.7650 h1         1 MA8       0.058700
     38 H5          -0.4170    -0.0350     0.7140 h1         1 MA8       0.084700
     39 H6           1.8150     0.4650    -1.3100 h1         1 MA8       0.104700
     40 HD          -0.7890    -3.8820    -2.5480 ho         1 MA8       0.505000
     41 H7          -0.9100     2.7090    -3.1310 h1         1 MA8       0.065700
     42 H8          -0.2570     3.3570    -5.3030 h1         1 MA8       0.056700
     43 H9          -2.0790    -0.8440    -3.4390 h1         1 MA8       0.050700
     44 H10         -2.7820     1.4020    -2.5150 h1         1 MA8       0.057200
     45 HH          -0.3090    -1.9340    -4.8920 ho         1 MA8       0.511500
     46 HI           1.1650     0.3560    -6.5070 ho         1 MA8       0.532000
     47 HG          -4.1760     0.5830    -3.9840 ho         1 MA8       0.511500
     48 HF          -1.2970     2.3760    -7.1170 ho         1 MA8       0.523000
     49 H11          0.7620     1.3950    -4.4020 h1         1 MA8       0.065700
     50 H12         -1.5170    -0.1570    -5.7000 h1         1 MA8       0.057200
     51 HE          -3.2530     3.5150    -4.4510 ho         1 MA8       0.532000
     52 H14         -0.5970     4.2430    -0.5210 h1         1 MA8       0.077700
     53 H2N1        -3.4630     3.8560    -0.1720 hn         1 MA8       0.421000
     54 H2N2        -2.6580     4.1180    -1.5630 hn         1 MA8       0.421000
     55 H151        -1.3640     5.5960     1.3440 h1         1 MA8       0.089700
     56 H152        -2.2130     4.2360     2.0650 h1         1 MA8       0.089700
     57 HS1         -0.1430     2.8790     2.7350 hs         1 MA8       0.211800
@<TRIPOS>BOND
     1     1     2 1   
     2     1     4 1   
     3     2     7 1   
     4     2    10 1   
     5     2    30 1   
     6     3     4 1   
     7     3     5 1   
     8     3    11 1   
     9     3    31 1   
    10     4     9 1   
    11     4    32 1   
    12     5    33 1   
    13     6    11 1   
    14     6    34 1   
    15     7    15 1   
    16     8    10 1   
    17     8    24 1   
    18     8    35 1   
    19     9    12 1   
    20     9    36 1   
    21     9    37 1   
    22    10    11 1   
    23    10    38 1   
    24    11    39 1   
    25    12    40 1   
    26    13    14 1   
    27    13    16 1   
    28    13    23 1   
    29    13    41 1   
    30    14    20 1   
    31    14    21 1   
    32    14    42 1   
    33    15    16 1   
    34    15    22 1   
    35    15    43 1   
    36    16    19 1   
    37    16    44 1   
    38    17    22 1   
    39    17    45 1   
    40    18    21 1   
    41    18    46 1   
    42    19    47 1   
    43    20    48 1   
    44    21    22 1   
    45    21    49 1   
    46    22    50 1   
    47    23    51 1   
    48    24    25 2   
    49    24    26 1   
    50    26    27 1   
    51    26    28 1   
    52    26    52 1   
    53    27    53 1   
    54    27    54 1   
    55    28    29 1   
    56    28    55 1   
    57    28    56 1   
    58    29    57 1   
@<TRIPOS>SUBSTRUCTURE
     1 MA8         1 TEMP              0 ****  ****    0 ROOT
