@<TRIPOS>MOLECULE
MA8
   57    58     1     0     0
SMALL
No Charge or Current Charge


@<TRIPOS>ATOM
      1 O1          -0.5630    -1.9000    -1.3510 os         1 MA8      -0.484000
      2 C1          -0.8060    -0.4780    -1.4260 c6         1 MA8       0.368300
      3 C2           1.6700    -1.6220    -0.3100 c6         1 MA8       0.123300
      4 C3           0.8360    -2.2950    -1.4400 c6         1 MA8       0.124300
      5 O2           3.0660    -1.9400    -0.4220 oh         1 MA8      -0.705000
      6 O3           2.2320     0.5680     0.6650 oh         1 MA8      -0.646000
      7 O4          -0.4030    -0.0090    -2.7320 os         1 MA8      -0.474000
      8 N1          -0.2550     1.7360    -0.3190 ns         1 MA8      -0.482900
      9 C4           0.8760    -3.8500    -1.3700 c3         1 MA8       0.171600
     10 C5          -0.0410     0.2690    -0.2870 c6         1 MA8       0.062700
     11 C6           1.4730    -0.0810    -0.3780 c6         1 MA8       0.115300
     12 O5          -0.1700    -4.4250    -2.1690 oh         1 MA8      -0.714000
     13 C7          -1.7690     2.5350    -3.7280 c6         1 MA8       0.167300
     14 C8          -1.0140     2.6770    -5.0950 c6         1 MA8       0.152300
     15 C9          -1.4380    -0.0150    -3.7480 c6         1 MA8       0.114300
     16 C10         -2.4700     1.1440    -3.5370 c6         1 MA8       0.128300
     17 O6           0.1990    -0.9610    -5.3140 oh         1 MA8      -0.710000
     18 O7           0.5250     1.5430    -6.6460 oh         1 MA8      -0.724500
     19 O8          -3.6040     0.9910    -4.4230 oh         1 MA8      -0.710000
     20 O9          -1.9120     2.8190    -6.2170 oh         1 MA8      -0.711000
     21 C11         -0.0570     1.4700    -5.3280 c6         1 MA8       0.167300
     22 C12         -0.7700     0.0920    -5.1520 c6         1 MA8       0.128300
     23 O10         -2.7220     3.6000    -3.5780 oh         1 MA8      -0.724500
     24 C13         -1.4280     2.3760     0.0250 c          1 MA8       0.545100
     25 O11         -2.4350     1.7440     0.3160 o          1 MA8      -0.621100
     26 C14         -1.4000     3.9440    -0.0330 c3         1 MA8       0.103500
     27 N2          -2.5480     4.5710    -0.7810 n8         1 MA8      -1.001200
     28 C15         -1.3130     4.5340     1.3960 c3         1 MA8       0.082600
     29 S1           0.2130     4.0480     2.3430 sh         1 MA8      -0.447800
     30 H1          -1.8800    -0.2980    -1.2770 h2         1 MA8       0.086700
     31 H2           1.2870    -1.9790     0.6590 h1         1 MA8       0.037700
     32 H3           1.2360    -1.9880    -2.4170 h1         1 MA8       0.089700
     33 HA           3.5360    -1.2210     0.0660 ho         1 MA8       0.520000
     34 HB           1.7440     0.4450     1.5090 ho         1 MA8       0.444000
     35 HC           0.5430     2.3250    -0.5350 hn         1 MA8       0.336500
     36 H4C1         0.7570    -4.1520    -0.3200 h1         1 MA8       0.058700
     37 H4C2         1.8630    -4.1980    -1.7040 h1         1 MA8       0.058700
     38 H5          -0.4320    -0.1050     0.6700 h1         1 MA8       0.084700
     39 H6           1.8370     0.2590    -1.3610 h1         1 MA8       0.104700
     40 HD          -0.9010    -3.7620    -2.1110 ho         1 MA8       0.505000
     41 H7          -1.0090     2.6200    -2.9370 h1         1 MA8       0.065700
     42 H8          -0.3850     3.5770    -5.0260 h1         1 MA8       0.056700
     43 H9          -1.9680    -0.9770    -3.6920 h1         1 MA8       0.050700
     44 H10         -2.8280     1.1060    -2.4990 h1         1 MA8       0.057200
     45 HH           0.5170    -1.1520    -4.4010 ho         1 MA8       0.511500
     46 HI           0.8870     0.6370    -6.8050 ho         1 MA8       0.532000
     47 HG          -4.2110     0.3290    -4.0160 ho         1 MA8       0.511500
     48 HF          -1.3640     2.5410    -6.9900 ho         1 MA8       0.523000
     49 H11          0.7400     1.5340    -4.5710 h1         1 MA8       0.065700
     50 H12         -1.5540    -0.0010    -5.9190 h1         1 MA8       0.057200
     51 HE          -3.2710     3.5180    -4.3960 ho         1 MA8       0.532000
     52 H14         -0.4780     4.2300    -0.5590 h1         1 MA8       0.077700
     53 H2N1        -3.4280     4.1740    -0.4290 hn         1 MA8       0.421000
     54 H2N2        -2.5410     4.2480    -1.7660 hn         1 MA8       0.421000
     55 H151        -1.3250     5.6300     1.3270 h1         1 MA8       0.089700
     56 H152        -2.1950     4.2290     1.9740 h1         1 MA8       0.089700
     57 HS1         -0.1130     2.7410     2.5000 hs         1 MA8       0.211800
@<TRIPOS>BOND
     1     1     2 1   
     2     1     4 1   
     3     2     7 1   
     4     2    10 1   
     5     2    30 1   
     6     3     4 1   
     7     3     5 1   
     8     3    11 1   
     9     3    31 1   
    10     4     9 1   
    11     4    32 1   
    12     5    33 1   
    13     6    11 1   
    14     6    34 1   
    15     7    15 1   
    16     8    10 1   
    17     8    24 1   
    18     8    35 1   
    19     9    12 1   
    20     9    36 1   
    21     9    37 1   
    22    10    11 1   
    23    10    38 1   
    24    11    39 1   
    25    12    40 1   
    26    13    14 1   
    27    13    16 1   
    28    13    23 1   
    29    13    41 1   
    30    14    20 1   
    31    14    21 1   
    32    14    42 1   
    33    15    16 1   
    34    15    22 1   
    35    15    43 1   
    36    16    19 1   
    37    16    44 1   
    38    17    22 1   
    39    17    45 1   
    40    18    21 1   
    41    18    46 1   
    42    19    47 1   
    43    20    48 1   
    44    21    22 1   
    45    21    49 1   
    46    22    50 1   
    47    23    51 1   
    48    24    25 2   
    49    24    26 1   
    50    26    27 1   
    51    26    28 1   
    52    26    52 1   
    53    27    53 1   
    54    27    54 1   
    55    28    29 1   
    56    28    55 1   
    57    28    56 1   
    58    29    57 1   
@<TRIPOS>SUBSTRUCTURE
     1 MA8         1 TEMP              0 ****  ****    0 ROOT
