@<TRIPOS>MOLECULE
MA9
   53    56     1     0     0
SMALL
bcc


@<TRIPOS>ATOM
      1 C5           3.8590    -6.2450    -1.9240 ca         1 MA9      -0.273500
      2 C6           5.2180    -6.5250    -1.8830 ca         1 MA9      -0.023000
      3 C7           5.9640    -6.0210    -0.8290 ca         1 MA9      -0.155000
      4 C8           5.3590    -5.2580     0.1570 ca         1 MA9      -0.030000
      5 C10          3.3710    -4.1560     1.1740 cp         1 MA9       0.530800
      6 C15         -0.7370    -0.6660     0.4250 c6         1 MA9      -0.091400
      7 C17         -1.6840     1.5410     1.2160 ca         1 MA9      -0.082300
      8 C21         -2.2960     4.2000     0.5900 ca         1 MA9       0.125900
      9 C24         -2.8920     2.1250     1.5670 ca         1 MA9       0.163900
     10 C26         -0.4140     0.0760     2.8000 c6         1 MA9       0.150500
     11 C28         -0.0690    -1.3790     3.1370 c6         1 MA9       0.181800
     12 F25         -3.8050     1.4000     2.2300 f          1 MA9      -0.136900
     13 C23         -3.2210     3.4340     1.2660 ca         1 MA9      -0.191000
     14 F22         -2.5740     5.4680     0.2790 f          1 MA9      -0.119900
     15 C19         -1.0760     3.6590     0.2290 ca         1 MA9       0.080900
     16 F           -0.1910     4.4200    -0.4260 f          1 MA9      -0.123900
     17 C18         -0.7740     2.3500     0.5380 ca         1 MA9      -0.122000
     18 C16         -1.3490     0.1200     1.5840 c6         1 MA9      -0.007400
     19 C14         -0.4080    -2.0900     0.8490 c6         1 MA9       0.223800
     20 N27         -1.0140     0.7760     3.9170 n8         1 MA9      -0.883800
     21 N            0.4800    -2.0880     1.9960 nh         1 MA9      -0.778300
     22 C12          1.6480    -2.7570     2.0580 ca         1 MA9       0.733200
     23 C11          2.1830    -3.4900     0.9740 ca         1 MA9      -0.430600
     24 N29          2.3270    -2.7150     3.2130 nb         1 MA9      -0.801000
     25 C30          3.4680    -3.3720     3.2800 ca         1 MA9       0.699900
     26 N31          4.0350    -4.0990     2.3380 nb         1 MA9      -0.752000
     27 C9           3.9940    -4.9720     0.1070 cp         1 MA9      -0.171500
     28 C32          3.2410    -5.4830    -0.9460 ca         1 MA9      -0.020000
     29 S            2.8800    -6.8850    -3.2620 sy         1 MA9       1.087300
     30 O            3.5370    -8.0820    -3.7810 o          1 MA9      -0.593300
     31 O4           1.4940    -6.9830    -2.8070 o          1 MA9      -0.593300
     32 C            2.9750    -5.6130    -4.5000 c3         1 MA9      -0.226300
     33 H6           5.6900    -7.1260    -2.6480 ha         1 MA9       0.156000
     34 H7           7.0240    -6.2290    -0.7740 ha         1 MA9       0.143000
     35 H8           5.9490    -4.8740     0.9770 ha         1 MA9       0.160000
     36 H151         0.1770    -0.1850     0.0680 hc         1 MA9       0.057700
     37 H152        -1.4340    -0.6980    -0.4150 hc         1 MA9       0.057700
     38 H26          0.5150     0.5950     2.5360 h1         1 MA9       0.074700
     39 H281         0.6410    -1.4080     3.9570 h1         1 MA9       0.064700
     40 H282        -0.9830    -1.8910     3.4670 h1         1 MA9       0.064700
     41 H23         -4.1770     3.8500     1.5570 ha         1 MA9       0.171000
     42 H18          0.1930     1.9620     0.2420 ha         1 MA9       0.153000
     43 H16         -2.2740    -0.3960     1.8690 hc         1 MA9       0.064700
     44 H141        -1.3290    -2.6190     1.1190 h1         1 MA9       0.054700
     45 H142         0.0290    -2.6250     0.0120 h1         1 MA9       0.054700
     46 H271        -0.3720     0.7960     4.7000 hn         1 MA9       0.347300
     47 H272        -1.8360     0.2750     4.2360 hn         1 MA9       0.347300
     48 H11          1.6970    -3.5190     0.0120 ha         1 MA9       0.148000
     49 H30          3.9960    -3.3090     4.2260 h5         1 MA9       0.047100
     50 H32          2.1740    -5.3110    -0.9930 ha         1 MA9       0.153000
     51 H1           4.0140    -5.4610    -4.7820 h1         1 MA9       0.102367
     52 H2           2.4010    -5.9550    -5.3600 h1         1 MA9       0.102367
     53 H3           2.5490    -4.6930    -4.1080 h1         1 MA9       0.102367
@<TRIPOS>BOND
     1     1     2 ar  
     2     1    28 ar  
     3     1    29 1   
     4     2     3 ar  
     5     2    33 1   
     6     3     4 ar  
     7     3    34 1   
     8     4    27 ar  
     9     4    35 1   
    10     5    23 ar  
    11     5    26 ar  
    12     5    27 1   
    13     6    18 1   
    14     6    19 1   
    15     6    36 1   
    16     6    37 1   
    17     7     9 ar  
    18     7    17 ar  
    19     7    18 1   
    20     8    13 ar  
    21     8    14 1   
    22     8    15 ar  
    23     9    12 1   
    24     9    13 ar  
    25    10    11 1   
    26    10    18 1   
    27    10    20 1   
    28    10    38 1   
    29    11    21 1   
    30    11    39 1   
    31    11    40 1   
    32    13    41 1   
    33    15    16 1   
    34    15    17 ar  
    35    17    42 1   
    36    18    43 1   
    37    19    21 1   
    38    19    44 1   
    39    19    45 1   
    40    20    46 1   
    41    20    47 1   
    42    21    22 1   
    43    22    23 ar  
    44    22    24 ar  
    45    23    48 1   
    46    24    25 ar  
    47    25    26 ar  
    48    25    49 1   
    49    27    28 ar  
    50    28    50 1   
    51    29    30 2   
    52    29    31 2   
    53    29    32 1   
    54    32    51 1   
    55    32    52 1   
    56    32    53 1   
@<TRIPOS>SUBSTRUCTURE
     1 MA9         1 TEMP              0 ****  ****    0 ROOT
