@<TRIPOS>MOLECULE
MA9
   53    56     1     0     0
SMALL
No Charge or Current Charge


@<TRIPOS>ATOM
      1 C5           3.8020    -6.1780    -2.1140 ca         1 MA9      -0.273500
      2 C6           5.0690    -6.7690    -1.9510 ca         1 MA9      -0.005000
      3 C7           5.7400    -6.6480    -0.7250 ca         1 MA9      -0.137000
      4 C8           5.1560    -5.9380     0.3370 ca         1 MA9      -0.012000
      5 C10          3.2600    -4.5600     1.3340 cp         1 MA9       0.202500
      6 C15         -0.9640    -0.8130     0.7030 c6         1 MA9      -0.091400
      7 C17         -1.8570     1.5230     1.2140 ca         1 MA9      -0.082300
      8 C21         -2.8720     3.9130     0.0950 ca         1 MA9       0.161000
      9 C24         -3.1850     1.9400     1.4770 ca         1 MA9       0.199000
     10 C26         -0.0220     0.4530     2.6940 c6         1 MA9       0.150500
     11 C28          0.5330    -0.9050     3.2400 c6         1 MA9       0.181800
     12 F25         -4.0000     1.2020     2.2640 f          1 MA9      -0.172000
     13 C23         -3.6880     3.1270     0.9210 ca         1 MA9      -0.173000
     14 F22         -3.3640     5.0550    -0.4370 f          1 MA9      -0.155000
     15 C19         -1.5510     3.5120    -0.1780 ca         1 MA9       0.116000
     16 F           -0.7590     4.2640    -0.9760 f          1 MA9      -0.159000
     17 C18         -1.0460     2.3240     0.3760 ca         1 MA9      -0.104000
     18 C16         -1.2900     0.2190     1.8160 c6         1 MA9      -0.007400
     19 C14         -0.4310    -2.1390     1.2930 c6         1 MA9       0.223800
     20 N27         -0.2990     1.4280     3.7900 n8         1 MA9      -0.994200
     21 N            0.7700    -1.8980     2.1440 nh         1 MA9      -0.778300
     22 C12          1.7530    -2.9060     2.2700 ca         1 MA9       0.404900
     23 C11          2.2700    -3.5660     1.1450 ca         1 MA9      -0.282000
     24 N29          2.1990    -3.1950     3.5080 nb         1 MA9      -0.275000
     25 C30          3.1450    -4.1480     3.6020 ca         1 MA9       0.173900
     26 N31          3.6910    -4.8370     2.5810 nb         1 MA9      -0.226000
     27 C9           3.8820    -5.3230     0.1980 cp         1 MA9      -0.171500
     28 C32          3.2170    -5.4620    -1.0490 ca         1 MA9      -0.002000
     29 S            2.9320    -6.3270    -3.6890 sy         1 MA9       1.056500
     30 O            3.4610    -7.4870    -4.4180 o          1 MA9      -0.522500
     31 O4           1.4910    -6.1660    -3.4540 o          1 MA9      -0.522500
     32 C            3.4680    -4.8710    -4.5860 c3         1 MA9      -0.337100
     33 H6           5.5380    -7.3210    -2.7650 ha         1 MA9       0.138000
     34 H7           6.7180    -7.1050    -0.5960 ha         1 MA9       0.125000
     35 H8           5.7070    -5.8590     1.2720 ha         1 MA9       0.142000
     36 H151        -0.2190    -0.4050     0.0080 hc         1 MA9       0.057700
     37 H152        -1.8650    -1.0170     0.1090 hc         1 MA9       0.057700
     38 H26          0.7630     0.8940     2.0590 h1         1 MA9       0.074700
     39 H281         1.4710    -0.6950     3.7750 h1         1 MA9       0.064700
     40 H282        -0.1740    -1.3210     3.9730 h1         1 MA9       0.064700
     41 H23         -4.7080     3.4360     1.1300 ha         1 MA9       0.153000
     42 H18         -0.0240     2.0320     0.1530 ha         1 MA9       0.135000
     43 H16         -2.0490    -0.2400     2.4640 hc         1 MA9       0.064700
     44 H141        -1.2230    -2.6150     1.8910 h1         1 MA9       0.054700
     45 H142        -0.2040    -2.8230     0.4630 h1         1 MA9       0.054700
     46 H271         0.5390     1.5290     4.3750 hn         1 MA9       0.402500
     47 H272        -0.9950     1.0290     4.4300 hn         1 MA9       0.402500
     48 H11          1.9380    -3.2890     0.1520 ha         1 MA9       0.130000
     49 H30          3.5060    -4.3840     4.6010 h5         1 MA9       0.047100
     50 H32          2.2320    -5.0220    -1.1870 ha         1 MA9       0.135000
     51 H1           4.5570    -4.9160    -4.6900 h1         1 MA9       0.102367
     52 H2           2.9840    -4.8770    -5.5670 h1         1 MA9       0.102367
     53 H3           3.1710    -3.9870    -4.0120 h1         1 MA9       0.102367
@<TRIPOS>BOND
     1     1     2 ar  
     2     1    28 ar  
     3     1    29 1   
     4     2     3 ar  
     5     2    33 1   
     6     3     4 ar  
     7     3    34 1   
     8     4    27 ar  
     9     4    35 1   
    10     5    23 ar  
    11     5    26 ar  
    12     5    27 1   
    13     6    18 1   
    14     6    19 1   
    15     6    36 1   
    16     6    37 1   
    17     7     9 ar  
    18     7    17 ar  
    19     7    18 1   
    20     8    13 ar  
    21     8    14 1   
    22     8    15 ar  
    23     9    12 1   
    24     9    13 ar  
    25    10    11 1   
    26    10    18 1   
    27    10    20 1   
    28    10    38 1   
    29    11    21 1   
    30    11    39 1   
    31    11    40 1   
    32    13    41 1   
    33    15    16 1   
    34    15    17 ar  
    35    17    42 1   
    36    18    43 1   
    37    19    21 1   
    38    19    44 1   
    39    19    45 1   
    40    20    46 1   
    41    20    47 1   
    42    21    22 1   
    43    22    23 ar  
    44    22    24 ar  
    45    23    48 1   
    46    24    25 ar  
    47    25    26 ar  
    48    25    49 1   
    49    27    28 ar  
    50    28    50 1   
    51    29    30 2   
    52    29    31 2   
    53    29    32 1   
    54    32    51 1   
    55    32    52 1   
    56    32    53 1   
@<TRIPOS>SUBSTRUCTURE
     1 MA9         1 TEMP              0 ****  ****    0 ROOT
