@<TRIPOS>MOLECULE
MAA
   15    14     1     0     0
SMALL
bcc


@<TRIPOS>ATOM
      1 N           -2.9160    14.5270    13.3600 n7         1 MAA      -0.779200
      2 CM          -3.0210    13.1250    13.0090 c3         1 MAA       0.154100
      3 CA          -2.1190    15.3320    12.4360 c3         1 MAA       0.027500
      4 CB          -2.7710    15.5290    11.0720 c3         1 MAA      -0.095100
      5 C           -1.7700    16.6690    13.1490 c          1 MAA       0.937600
      6 O           -2.3680    17.6960    12.7710 o          1 MAA      -0.834300
      7 OXT         -0.9280    16.5940    14.0660 o          1 MAA      -0.834300
      8 H           -3.8470    14.9230    13.4220 hn         1 MAA       0.339800
      9 HM1         -3.6830    12.6220    13.7150 h1         1 MAA       0.002700
     10 HM2         -3.4020    12.9170    12.0000 h1         1 MAA       0.002700
     11 HM3         -2.0400    12.6510    13.0900 h1         1 MAA       0.002700
     12 HA          -1.1770    14.7900    12.2940 h1         1 MAA       0.035700
     13 HB1         -2.1180    16.0830    10.3950 hc         1 MAA       0.013700
     14 HB2         -2.9960    14.5760    10.5910 hc         1 MAA       0.013700
     15 HB3         -3.7010    16.0910    11.1600 hc         1 MAA       0.013700
@<TRIPOS>BOND
     1     1     2 1   
     2     1     3 1   
     3     1     8 1   
     4     2     9 1   
     5     2    10 1   
     6     2    11 1   
     7     3     4 1   
     8     3     5 1   
     9     3    12 1   
    10     4    13 1   
    11     4    14 1   
    12     4    15 1   
    13     5     6 1   
    14     5     7 1   
@<TRIPOS>SUBSTRUCTURE
     1 MAA         1 TEMP              0 ****  ****    0 ROOT
