@<TRIPOS>MOLECULE
MAA
   15    14     1     0     0
SMALL
No Charge or Current Charge


@<TRIPOS>ATOM
      1 N           -2.9970    14.4960    13.3730 n7         1 MAA      -0.834400
      2 CM          -3.1780    13.0850    12.9850 c3         1 MAA       0.154100
      3 CA          -2.0690    15.3320    12.5280 c3         1 MAA       0.027500
      4 CB          -2.6170    15.4640    11.0830 c3         1 MAA      -0.095100
      5 C           -1.7600    16.7630    13.1320 c          1 MAA       0.727000
      6 O           -2.6910    17.5370    13.3240 o          1 MAA      -0.729000
      7 OXT         -0.6020    17.0290    13.4340 o          1 MAA      -0.729000
      8 H           -3.9170    14.9560    13.3970 hn         1 MAA       0.395000
      9 HM1         -3.7930    12.5630    13.7290 h1         1 MAA       0.002700
     10 HM2         -3.6820    13.0020    12.0130 h1         1 MAA       0.002700
     11 HM3         -2.2090    12.5720    12.9210 h1         1 MAA       0.002700
     12 HA          -1.1000    14.8190    12.4590 h1         1 MAA       0.035700
     13 HB1         -1.9600    16.1110    10.4890 hc         1 MAA       0.013700
     14 HB2         -2.6620    14.4910    10.5810 hc         1 MAA       0.013700
     15 HB3         -3.6210    15.9050    11.0800 hc         1 MAA       0.013700
@<TRIPOS>BOND
     1     1     2 1   
     2     1     3 1   
     3     1     8 1   
     4     2     9 1   
     5     2    10 1   
     6     2    11 1   
     7     3     4 1   
     8     3     5 1   
     9     3    12 1   
    10     4    13 1   
    11     4    14 1   
    12     4    15 1   
    13     5     6 1   
    14     5     7 1   
@<TRIPOS>SUBSTRUCTURE
     1 MAA         1 TEMP              0 ****  ****    0 ROOT
