@<TRIPOS>MOLECULE
MAE
   10     9     1     0     0
SMALL
bcc


@<TRIPOS>ATOM
      1 C1          45.1920   -10.2110    57.8160 c          1 MAE       0.937800
      2 O1          46.1380   -10.5000    58.5740 o          1 MAE      -0.867550
      3 O2          44.5250   -10.9860    57.1040 o          1 MAE      -0.867550
      4 C2          44.7180    -8.7740    57.8490 ce         1 MAE      -0.240700
      5 C3          45.0860    -7.7430    57.0870 cf         1 MAE      -0.240700
      6 C4          46.1070    -7.7640    55.9750 c          1 MAE       0.937800
      7 O3          46.2620    -6.6820    55.3650 o          1 MAE      -0.867550
      8 O4          46.7100    -8.8340    55.7480 o          1 MAE      -0.867550
      9 H2          43.9590    -8.5820    58.6080 ha         1 MAE       0.037500
     10 H3          44.6090    -6.7820    57.2690 ha         1 MAE       0.037500
@<TRIPOS>BOND
     1     1     2 1   
     2     1     3 1   
     3     1     4 1   
     4     4     5 2   
     5     4     9 1   
     6     5     6 1   
     7     5    10 1   
     8     6     7 1   
     9     6     8 1   
@<TRIPOS>SUBSTRUCTURE
     1 MAE         1 TEMP              0 ****  ****    0 ROOT
