@<TRIPOS>MOLECULE
MAE
   10     9     1     0     0
SMALL
No Charge or Current Charge


@<TRIPOS>ATOM
      1 C1          45.1990   -10.2650    57.9690 c          1 MAE       0.727200
      2 O1          44.8270   -10.8800    58.9560 o          1 MAE      -0.762250
      3 O2          45.7450   -10.8160    57.0310 o          1 MAE      -0.762250
      4 C2          44.9420    -8.7780    57.9770 ce         1 MAE      -0.290700
      5 C3          45.2040    -7.7600    57.0770 cf         1 MAE      -0.290700
      6 C4          45.8550    -7.7360    55.7190 c          1 MAE       0.727200
      7 O3          45.9290    -6.6440    55.1790 o          1 MAE      -0.762250
      8 O4          46.2790    -8.7500    55.1950 o          1 MAE      -0.762250
      9 H2          44.4470    -8.4550    58.8900 ha         1 MAE       0.087500
     10 H3          44.8790    -6.7730    57.4020 ha         1 MAE       0.087500
@<TRIPOS>BOND
     1     1     2 1   
     2     1     3 1   
     3     1     4 1   
     4     4     5 2   
     5     4     9 1   
     6     5     6 1   
     7     5    10 1   
     8     6     7 1   
     9     6     8 1   
@<TRIPOS>SUBSTRUCTURE
     1 MAE         1 TEMP              0 ****  ****    0 ROOT
