@<TRIPOS>MOLECULE
MAF
   23    23     1     0     0
SMALL
No Charge or Current Charge


@<TRIPOS>ATOM
      1 C1          -1.7250    -0.1580    -0.3150 c6         1 MAF       0.363300
      2 C2          -0.8530     0.0630    -1.5930 c6         1 MAF       0.144300
      3 F2          -0.8110     1.4500    -1.8800 f          1 MAF      -0.249000
      4 C3           0.6030    -0.4610    -1.3840 c6         1 MAF       0.110300
      5 O3           1.4650    -0.1610    -2.5060 oh         1 MAF      -0.654000
      6 C4           1.2090     0.1340    -0.0790 c6         1 MAF       0.147300
      7 O4           2.5310    -0.4010     0.1160 oh         1 MAF      -0.719000
      8 C5           0.2630    -0.1670     1.1260 c6         1 MAF       0.171300
      9 O5          -1.0670     0.3660     0.8570 os         1 MAF      -0.459000
     10 C6           0.7830     0.4640     2.4610 c3         1 MAF       0.170600
     11 O6          -0.1020     0.2480     3.5810 oh         1 MAF      -0.714000
     12 O1L         -1.9750    -1.5410    -0.0720 oh         1 MAF      -0.683000
     13 H1          -2.6830     0.3680    -0.4530 h2         1 MAF       0.081700
     14 H2          -1.3230    -0.4360    -2.4510 h1         1 MAF       0.070700
     15 H3           0.5390    -1.5530    -1.2550 h1         1 MAF       0.065700
     16 HA           1.0280    -0.5090    -3.3160 ho         1 MAF       0.452000
     17 H4           1.2670     1.2280    -0.1960 h1         1 MAF       0.063700
     18 HB           2.9210    -0.4310    -0.7930 ho         1 MAF       0.522000
     19 H5           0.1990    -1.2550     1.2740 h1         1 MAF       0.070700
     20 H6C1         0.9240     1.5410     2.2950 h1         1 MAF       0.036200
     21 H6C2         1.7720     0.0380     2.6800 h1         1 MAF       0.036200
     22 H6           0.2800     0.7380     4.3470 ho         1 MAF       0.504000
     23 H1L         -2.4350    -1.5660     0.7950 ho         1 MAF       0.467000
@<TRIPOS>BOND
     1     1     2 1   
     2     1     9 1   
     3     1    12 1   
     4     1    13 1   
     5     2     3 1   
     6     2     4 1   
     7     2    14 1   
     8     4     5 1   
     9     4     6 1   
    10     4    15 1   
    11     5    16 1   
    12     6     7 1   
    13     6     8 1   
    14     6    17 1   
    15     7    18 1   
    16     8     9 1   
    17     8    10 1   
    18     8    19 1   
    19    10    11 1   
    20    10    20 1   
    21    10    21 1   
    22    11    22 1   
    23    12    23 1   
@<TRIPOS>SUBSTRUCTURE
     1 MAF         1 TEMP              0 ****  ****    0 ROOT
