@<TRIPOS>MOLECULE
MAF
   23    23     1     0     0
SMALL
bcc


@<TRIPOS>ATOM
      1 C1          -1.6910    -0.1520    -0.2480 c6         1 MAF       0.316900
      2 C2          -0.8770     0.0870    -1.5130 c6         1 MAF       0.125600
      3 F2          -0.8160     1.4640    -1.7140 f          1 MAF      -0.230300
      4 C3           0.5330    -0.4560    -1.3570 c6         1 MAF       0.087100
      5 O3           1.3550    -0.1210    -2.4490 oh         1 MAF      -0.591800
      6 C4           1.1840     0.1010    -0.0950 c6         1 MAF       0.124100
      7 O4           2.4150    -0.5300     0.1610 oh         1 MAF      -0.596800
      8 C5           0.2750    -0.1460     1.1110 c6         1 MAF       0.148100
      9 O5          -1.0260     0.3660     0.8680 os         1 MAF      -0.412600
     10 C6           0.8010     0.5400     2.3550 c3         1 MAF       0.147400
     11 O6          -0.0070     0.1790     3.4500 oh         1 MAF      -0.591800
     12 O1L         -1.9160    -1.5220    -0.1690 oh         1 MAF      -0.620800
     13 H1          -2.6310     0.4090    -0.3000 h2         1 MAF       0.081700
     14 H2          -1.3790    -0.3510    -2.3810 h1         1 MAF       0.070700
     15 H3           0.4540    -1.5450    -1.2430 h1         1 MAF       0.065700
     16 HA           1.1690    -0.7240    -3.1760 ho         1 MAF       0.413000
     17 H4           1.3180     1.1870    -0.2170 h1         1 MAF       0.063700
     18 HB           3.0090    -0.3360    -0.5720 ho         1 MAF       0.423000
     19 H5           0.2330    -1.2280     1.2970 h1         1 MAF       0.070700
     20 H6C1         0.8020     1.6270     2.1910 h1         1 MAF       0.036200
     21 H6C2         1.8420     0.2350     2.5030 h1         1 MAF       0.036200
     22 H6           0.3450     0.6100     4.2330 ho         1 MAF       0.405000
     23 H1L         -2.5820    -1.6950     0.5050 ho         1 MAF       0.428000
@<TRIPOS>BOND
     1     1     2 1   
     2     1     9 1   
     3     1    12 1   
     4     1    13 1   
     5     2     3 1   
     6     2     4 1   
     7     2    14 1   
     8     4     5 1   
     9     4     6 1   
    10     4    15 1   
    11     5    16 1   
    12     6     7 1   
    13     6     8 1   
    14     6    17 1   
    15     7    18 1   
    16     8     9 1   
    17     8    10 1   
    18     8    19 1   
    19    10    11 1   
    20    10    20 1   
    21    10    21 1   
    22    11    22 1   
    23    12    23 1   
@<TRIPOS>SUBSTRUCTURE
     1 MAF         1 TEMP              0 ****  ****    0 ROOT
