@<TRIPOS>MOLECULE
MAG
   33    33     1     0     0
SMALL
No Charge or Current Charge


@<TRIPOS>ATOM
      1 C1          31.4310    12.3270    35.1290 c6         1 MAG       0.387300
      2 C2          32.5790    13.3400    34.8020 c6         1 MAG       0.059700
      3 C3          32.0690    14.2560    33.6450 c6         1 MAG       0.150300
      4 C4          31.6300    13.4050    32.4150 c6         1 MAG       0.103300
      5 C5          30.5630    12.3550    32.8670 c6         1 MAG       0.158300
      6 C6          30.1300    11.3790    31.7210 c3         1 MAG       0.164600
      7 C7          34.2080    14.6920    36.2550 c          1 MAG       0.618100
      8 C8          35.4270    14.1320    35.5200 c3         1 MAG      -0.179100
      9 N2          32.9760    14.1320    35.9990 ns         1 MAG      -0.499900
     10 O1          31.7690    11.4170    36.1990 os         1 MAG      -0.426000
     11 O3          33.0640    15.2030    33.2310 oh         1 MAG      -0.652000
     12 O4          31.1360    14.2770    31.3710 oh         1 MAG      -0.726000
     13 O5          31.0980    11.5600    33.9560 os         1 MAG      -0.471000
     14 O6          31.2140    10.5880    31.1910 oh         1 MAG      -0.717000
     15 O7          34.3160    15.5540    37.1120 o          1 MAG      -0.603100
     16 CM          32.9130    10.5590    36.0220 c3         1 MAG       0.142900
     17 H1          30.5430    12.8980    35.4420 h2         1 MAG       0.063700
     18 H2          33.4410    12.7690    34.4330 h1         1 MAG       0.083700
     19 H3          31.1850    14.8010    34.0110 h1         1 MAG       0.042700
     20 H4          32.5130    12.8540    32.0560 h1         1 MAG       0.072700
     21 H5          29.6630    12.8780    33.2240 h1         1 MAG       0.049700
     22 H61         29.3500    10.7190    32.1250 h1         1 MAG       0.035200
     23 H62         29.6630    11.9670    30.9200 h1         1 MAG       0.035200
     24 H81         36.3640    14.5810    35.8660 hc         1 MAG       0.062367
     25 H82         35.4430    13.0420    35.6290 hc         1 MAG       0.062367
     26 H83         35.2990    14.2630    34.4410 hc         1 MAG       0.062367
     27 HN2         32.2330    14.4820    36.5920 hn         1 MAG       0.313500
     28 HO3         32.7470    15.5220    32.3550 ho         1 MAG       0.463000
     29 HO4         31.1540    13.7640    30.5280 ho         1 MAG       0.517000
     30 HO6         30.8130     9.9060    30.6020 ho         1 MAG       0.507000
     31 HM1         33.0070     9.8750    36.8750 h1         1 MAG       0.039033
     32 HM2         32.8170     9.9540    35.1120 h1         1 MAG       0.039033
     33 HM3         33.8410    11.1420    35.9590 h1         1 MAG       0.039033
@<TRIPOS>BOND
     1     1     2 1   
     2     1    10 1   
     3     1    13 1   
     4     1    17 1   
     5     2     3 1   
     6     2     9 1   
     7     2    18 1   
     8     3     4 1   
     9     3    11 1   
    10     3    19 1   
    11     4     5 1   
    12     4    12 1   
    13     4    20 1   
    14     5     6 1   
    15     5    13 1   
    16     5    21 1   
    17     6    14 1   
    18     6    22 1   
    19     6    23 1   
    20     7     8 1   
    21     7     9 1   
    22     7    15 2   
    23     8    24 1   
    24     8    25 1   
    25     8    26 1   
    26     9    27 1   
    27    10    16 1   
    28    11    28 1   
    29    12    29 1   
    30    14    30 1   
    31    16    31 1   
    32    16    32 1   
    33    16    33 1   
@<TRIPOS>SUBSTRUCTURE
     1 MAG         1 TEMP              0 ****  ****    0 ROOT
