@<TRIPOS>MOLECULE
MAG
   33    33     1     0     0
SMALL
bcc


@<TRIPOS>ATOM
      1 C1          31.4630    12.3390    35.0930 c6         1 MAG       0.340900
      2 C2          32.5660    13.3500    34.7270 c6         1 MAG       0.059700
      3 C3          32.0560    14.2240    33.5800 c6         1 MAG       0.127100
      4 C4          31.6480    13.3340    32.4120 c6         1 MAG       0.080100
      5 C5          30.6020    12.3250    32.8970 c6         1 MAG       0.135100
      6 C6          30.1250    11.3680    31.8250 c3         1 MAG       0.141400
      7 C7          34.1580    14.5270    36.2690 c          1 MAG       0.685100
      8 C8          35.3330    14.0400    35.4560 c3         1 MAG      -0.179100
      9 N2          32.9240    14.1240    35.8880 ns         1 MAG      -0.566900
     10 O1          31.7730    11.4970    36.1370 os         1 MAG      -0.379600
     11 O3          33.0660    15.1310    33.2280 oh         1 MAG      -0.589800
     12 O4          31.1310    14.1680    31.4020 oh         1 MAG      -0.603800
     13 O5          31.1330    11.5700    33.9680 os         1 MAG      -0.424600
     14 O6          31.2270    10.7000    31.2590 oh         1 MAG      -0.594800
     15 O7          34.3070    15.2470    37.2450 o          1 MAG      -0.603100
     16 CM          32.9370    10.7000    36.0130 c3         1 MAG       0.119700
     17 H1          30.5770    12.9030    35.4320 h2         1 MAG       0.063700
     18 H2          33.4470    12.8060    34.3750 h1         1 MAG       0.083700
     19 H3          31.1580    14.7610    33.9330 h1         1 MAG       0.042700
     20 H4          32.5380    12.7930    32.0660 h1         1 MAG       0.072700
     21 H5          29.7150    12.8860    33.2360 h1         1 MAG       0.049700
     22 H61         29.4110    10.6700    32.2790 h1         1 MAG       0.035200
     23 H62         29.5670    11.9480    31.0800 h1         1 MAG       0.035200
     24 H81         36.2500    14.4460    35.8760 hc         1 MAG       0.062367
     25 H82         35.4070    12.9520    35.4650 hc         1 MAG       0.062367
     26 H83         35.2540    14.3520    34.4160 hc         1 MAG       0.062367
     27 HN2         32.1620    14.5150    36.4250 hn         1 MAG       0.313500
     28 HO3         32.7500    15.6480    32.4790 ho         1 MAG       0.424000
     29 HO4         31.2730    13.7510    30.5470 ho         1 MAG       0.418000
     30 HO6         30.9010    10.1030    30.5800 ho         1 MAG       0.408000
     31 HM1         32.9270    10.0050    36.8510 h1         1 MAG       0.039033
     32 HM2         32.9560    10.1210    35.0880 h1         1 MAG       0.039033
     33 HM3         33.8550    11.2880    36.0780 h1         1 MAG       0.039033
@<TRIPOS>BOND
     1     1     2 1   
     2     1    10 1   
     3     1    13 1   
     4     1    17 1   
     5     2     3 1   
     6     2     9 1   
     7     2    18 1   
     8     3     4 1   
     9     3    11 1   
    10     3    19 1   
    11     4     5 1   
    12     4    12 1   
    13     4    20 1   
    14     5     6 1   
    15     5    13 1   
    16     5    21 1   
    17     6    14 1   
    18     6    22 1   
    19     6    23 1   
    20     7     8 1   
    21     7     9 1   
    22     7    15 2   
    23     8    24 1   
    24     8    25 1   
    25     8    26 1   
    26     9    27 1   
    27    10    16 1   
    28    11    28 1   
    29    12    29 1   
    30    14    30 1   
    31    16    31 1   
    32    16    32 1   
    33    16    33 1   
@<TRIPOS>SUBSTRUCTURE
     1 MAG         1 TEMP              0 ****  ****    0 ROOT
