@<TRIPOS>MOLECULE
MAH
   19    18     1     0     0
SMALL
No Charge or Current Charge


@<TRIPOS>ATOM
      1 C1           0.1890     0.0290    -2.6280 c          1 MAH       0.716500
      2 C2           0.9630    -0.2230    -1.3190 c3         1 MAH      -0.230900
      3 C3           0.1060     0.0150    -0.0380 c3         1 MAH       0.222000
      4 C4           0.9860    -0.2240     1.2220 c3         1 MAH      -0.230900
      5 C5           0.1610    -0.1630     2.5150 c          1 MAH       0.716500
      6 C6          -0.5530     1.4230    -0.0200 c3         1 MAH      -0.064100
      7 O1           0.2280     1.1500    -3.1140 o          1 MAH      -0.758750
      8 O2          -0.3760    -0.9110    -3.1660 o          1 MAH      -0.758750
      9 O3          -0.5120    -1.1420     2.7960 o          1 MAH      -0.758750
     10 O4           0.1550     0.8730     3.1610 o          1 MAH      -0.758750
     11 O7          -0.9330    -0.9600     0.0030 oh         1 MAH      -0.637000
     12 H21          1.7960     0.4890    -1.2470 hc         1 MAH       0.010950
     13 H22          1.2890    -1.2700    -1.2790 hc         1 MAH       0.010950
     14 H41          1.3850    -1.2400     1.1050 hc         1 MAH       0.010950
     15 H42          1.7720     0.5420     1.2280 hc         1 MAH       0.010950
     16 H61          0.2110     2.2090    -0.0560 hc         1 MAH       0.030700
     17 H62         -1.2270     1.5620    -0.8730 hc         1 MAH       0.030700
     18 H63         -1.1540     1.5750     0.8830 hc         1 MAH       0.030700
     19 HO7         -0.9710    -1.2480     0.9460 ho         1 MAH       0.407000
@<TRIPOS>BOND
     1     1     2 1   
     2     1     7 1   
     3     1     8 1   
     4     2     3 1   
     5     2    12 1   
     6     2    13 1   
     7     3     4 1   
     8     3     6 1   
     9     3    11 1   
    10     4     5 1   
    11     4    14 1   
    12     4    15 1   
    13     5     9 1   
    14     5    10 1   
    15     6    16 1   
    16     6    17 1   
    17     6    18 1   
    18    11    19 1   
@<TRIPOS>SUBSTRUCTURE
     1 MAH         1 TEMP              0 ****  ****    0 ROOT
