@<TRIPOS>MOLECULE
MAH
   19    18     1     0     0
SMALL
abcg2


@<TRIPOS>ATOM
      1 C1           0.2930    -0.0600    -2.6510 c          1 MAH       0.716500
      2 C2           0.8960     0.0210    -1.2330 c3         1 MAH      -0.230900
      3 C3          -0.0170     0.0080     0.0040 c3         1 MAH       0.222000
      4 C4           0.8950     0.0190     1.2400 c3         1 MAH      -0.230900
      5 C5           0.2960    -0.0630     2.6600 c          1 MAH       0.716500
      6 C6          -0.9460     1.2170     0.0050 c3         1 MAH      -0.064100
      7 O1           1.1440    -0.0730    -3.5690 o          1 MAH      -0.758750
      8 O2          -0.9410    -0.1080    -2.8060 o          1 MAH      -0.758750
      9 O3          -0.9380    -0.1120     2.8180 o          1 MAH      -0.758750
     10 O4           1.1490    -0.0740     3.5760 o          1 MAH      -0.758750
     11 O7          -0.8300    -1.1560     0.0020 oh         1 MAH      -0.637000
     12 H21          1.5240     0.9190    -1.1950 hc         1 MAH       0.010950
     13 H22          1.6060    -0.8120    -1.1430 hc         1 MAH       0.010950
     14 H41          1.6060    -0.8140     1.1490 hc         1 MAH       0.010950
     15 H42          1.5240     0.9160     1.2020 hc         1 MAH       0.010950
     16 H61         -0.3560     2.1360     0.0070 hc         1 MAH       0.030700
     17 H62         -1.5710     1.2220    -0.8840 hc         1 MAH       0.030700
     18 H63         -1.5750     1.2190     0.8910 hc         1 MAH       0.030700
     19 HO7         -0.2450    -1.9190     0.0440 ho         1 MAH       0.407000
@<TRIPOS>BOND
     1     1     2 1   
     2     1     7 1   
     3     1     8 1   
     4     2     3 1   
     5     2    12 1   
     6     2    13 1   
     7     3     4 1   
     8     3     6 1   
     9     3    11 1   
    10     4     5 1   
    11     4    14 1   
    12     4    15 1   
    13     5     9 1   
    14     5    10 1   
    15     6    16 1   
    16     6    17 1   
    17     6    18 1   
    18    11    19 1   
@<TRIPOS>SUBSTRUCTURE
     1 MAH         1 TEMP              0 ****  ****    0 ROOT
