@<TRIPOS>MOLECULE
MAJ
   24    25     1     0     0
SMALL
bcc


@<TRIPOS>ATOM
      1 C1          -0.3220     0.8310     0.0540 ca         1 MAJ      -0.009000
      2 C2           0.5600    -0.2430    -0.0430 ca         1 MAJ      -0.275500
      3 C3           0.1160    -1.5560    -0.1070 ca         1 MAJ      -0.035000
      4 C4          -1.2490    -1.8150    -0.0670 ca         1 MAJ      -0.140000
      5 C5          -1.6750     0.5600     0.0880 ca         1 MAJ      -0.109300
      6 C6          -2.1370    -0.7570     0.0290 ca         1 MAJ      -0.031300
      7 C7          -3.6370    -0.7850     0.0970 c5         1 MAJ      -0.043100
      8 C8          -4.0270     0.6620    -0.2460 c5         1 MAJ      -0.078400
      9 C9          -2.8290     1.5170     0.1990 c5         1 MAJ      -0.034100
     10 S1           2.2940     0.0950    -0.1030 sy         1 MAJ       1.262200
     11 O1           2.9870    -1.1320    -0.4770 o          1 MAJ      -0.615300
     12 O2           2.5370     1.2880    -0.9040 o          1 MAJ      -0.615300
     13 N1           2.5800     0.5440     1.4620 n8         1 MAJ      -0.888700
     14 H1           0.0410     1.8510     0.0980 ha         1 MAJ       0.155000
     15 H3           0.8180    -2.3740    -0.1890 ha         1 MAJ       0.156000
     16 H4          -1.6030    -2.8370    -0.1180 ha         1 MAJ       0.139000
     17 H71         -4.0820    -1.5210    -0.5730 hc         1 MAJ       0.059200
     18 H72         -3.9520    -1.0480     1.1120 hc         1 MAJ       0.059200
     19 H81         -4.1560     0.7560    -1.3260 hc         1 MAJ       0.050200
     20 H82         -4.9610     0.9700     0.2220 hc         1 MAJ       0.050200
     21 H91         -2.9420     1.8450     1.2370 hc         1 MAJ       0.057200
     22 H92         -2.6990     2.4150    -0.4060 hc         1 MAJ       0.057200
     23 HN11         2.5260    -0.2380     2.1070 hn         1 MAJ       0.415300
     24 HN12         3.4790     1.0080     1.5520 hn         1 MAJ       0.415300
@<TRIPOS>BOND
     1     1     2 ar  
     2     1     5 ar  
     3     1    14 1   
     4     2     3 ar  
     5     2    10 1   
     6     3     4 ar  
     7     3    15 1   
     8     4     6 ar  
     9     4    16 1   
    10     5     6 ar  
    11     5     9 1   
    12     6     7 1   
    13     7     8 1   
    14     7    17 1   
    15     7    18 1   
    16     8     9 1   
    17     8    19 1   
    18     8    20 1   
    19     9    21 1   
    20     9    22 1   
    21    10    11 2   
    22    10    12 2   
    23    10    13 1   
    24    13    23 1   
    25    13    24 1   
@<TRIPOS>SUBSTRUCTURE
     1 MAJ         1 TEMP              0 ****  ****    0 ROOT
