@<TRIPOS>MOLECULE
MAJ
   24    25     1     0     0
SMALL
No Charge or Current Charge


@<TRIPOS>ATOM
      1 C1          -0.3470     0.9310     0.0020 ca         1 MAJ       0.009000
      2 C2           0.6120    -0.1050    -0.0540 ca         1 MAJ      -0.275500
      3 C3           0.1910    -1.4580    -0.0370 ca         1 MAJ      -0.017000
      4 C4          -1.1810    -1.7690     0.0350 ca         1 MAJ      -0.122000
      5 C5          -1.7080     0.5940     0.0690 ca         1 MAJ      -0.109300
      6 C6          -2.1150    -0.7240     0.0860 ca         1 MAJ      -0.031300
      7 C7          -3.6120    -0.8560     0.1730 c5         1 MAJ      -0.043100
      8 C8          -4.0570     0.5920    -0.2640 c5         1 MAJ      -0.078400
      9 C9          -2.8710     1.5480     0.1440 c5         1 MAJ      -0.034100
     10 S1           2.3580     0.3010    -0.1410 sy         1 MAJ       1.120600
     11 O1           3.1210    -0.8620    -0.5890 o          1 MAJ      -0.544500
     12 O2           2.5480     1.6410    -0.6960 o          1 MAJ      -0.544500
     13 N1           2.7480     0.4340     1.4430 n8         1 MAJ      -0.999100
     14 H1          -0.0450     1.9780    -0.0050 ha         1 MAJ       0.137000
     15 H3           0.9190    -2.2670    -0.0790 ha         1 MAJ       0.138000
     16 H4          -1.5100    -2.8050     0.0510 ha         1 MAJ       0.121000
     17 H71         -4.0170    -1.6310    -0.4880 hc         1 MAJ       0.059200
     18 H72         -3.9340    -1.0870     1.1950 hc         1 MAJ       0.059200
     19 H81         -4.2020     0.6240    -1.3500 hc         1 MAJ       0.050200
     20 H82         -5.0090     0.8920     0.1890 hc         1 MAJ       0.050200
     21 H91         -3.0000     1.9420     1.1590 hc         1 MAJ       0.057200
     22 H92         -2.7740     2.4020    -0.5370 hc         1 MAJ       0.057200
     23 HN11         2.0020    -0.0890     1.8940 hn         1 MAJ       0.470500
     24 HN12         3.5500    -0.1890     1.4970 hn         1 MAJ       0.470500
@<TRIPOS>BOND
     1     1     2 ar  
     2     1     5 ar  
     3     1    14 1   
     4     2     3 ar  
     5     2    10 1   
     6     3     4 ar  
     7     3    15 1   
     8     4     6 ar  
     9     4    16 1   
    10     5     6 ar  
    11     5     9 1   
    12     6     7 1   
    13     7     8 1   
    14     7    17 1   
    15     7    18 1   
    16     8     9 1   
    17     8    19 1   
    18     8    20 1   
    19     9    21 1   
    20     9    22 1   
    21    10    11 2   
    22    10    12 2   
    23    10    13 1   
    24    13    23 1   
    25    13    24 1   
@<TRIPOS>SUBSTRUCTURE
     1 MAJ         1 TEMP              0 ****  ****    0 ROOT
