@<TRIPOS>MOLECULE
MAK
    8     7     1     0     0
SMALL
bcc


@<TRIPOS>ATOM
      1 C1           0.1840     0.0580     1.2840 c          1 MAK       0.865100
      2 O1           1.0600     0.9400     1.2180 o          1 MAK      -0.859550
      3 O2          -0.1110    -0.6790     2.2370 o          1 MAK      -0.859550
      4 C2          -0.6380    -0.0740    -0.0010 c          1 MAK       0.345100
      5 O3          -1.8510    -0.1320     0.0110 o          1 MAK      -0.638100
      6 C3           0.1660    -0.1310    -1.2960 c          1 MAK       0.865100
      7 O4           1.0190    -1.0380    -1.3010 o          1 MAK      -0.859550
      8 O5          -0.1170     0.6780    -2.1930 o          1 MAK      -0.859550
@<TRIPOS>BOND
     1     1     2 1   
     2     1     3 1   
     3     1     4 1   
     4     4     5 2   
     5     4     6 1   
     6     6     7 1   
     7     6     8 1   
@<TRIPOS>SUBSTRUCTURE
     1 MAK         1 TEMP              0 ****  ****    0 ROOT
