@<TRIPOS>MOLECULE
MAK
    8     7     1     0     0
SMALL
No Charge or Current Charge


@<TRIPOS>ATOM
      1 C1           0.2020     0.0680     1.3110 c          1 MAK       0.654500
      2 O1           1.0220     0.9810     1.3730 o          1 MAK      -0.754250
      3 O2          -0.0080    -0.7010     2.2480 o          1 MAK      -0.754250
      4 C2          -0.7010    -0.0580     0.0010 c          1 MAK       0.345100
      5 O3          -1.9490    -0.0790     0.0120 o          1 MAK      -0.638100
      6 C3           0.1830    -0.1550    -1.3250 c          1 MAK       0.654500
      7 O4           1.0320    -1.0400    -1.4020 o          1 MAK      -0.754250
      8 O5          -0.0690     0.6060    -2.2580 o          1 MAK      -0.754250
@<TRIPOS>BOND
     1     1     2 1   
     2     1     3 1   
     3     1     4 1   
     4     4     5 2   
     5     4     6 1   
     6     6     7 1   
     7     6     8 1   
@<TRIPOS>SUBSTRUCTURE
     1 MAK         1 TEMP              0 ****  ****    0 ROOT
