@<TRIPOS>MOLECULE
MAM
   27    27     1     0     0
SMALL
No Charge or Current Charge


@<TRIPOS>ATOM
      1 C1           1.5640    -0.2060     0.0190 c6         1 MAM       0.350300
      2 C2           1.0700    -0.1780    -1.4730 c6         1 MAM       0.123300
      3 C3          -0.2400     0.6620    -1.5560 c6         1 MAM       0.143300
      4 C4          -1.3080     0.1140    -0.5580 c6         1 MAM       0.146300
      5 C5          -0.7070     0.0600     0.8820 c6         1 MAM       0.172300
      6 C6          -1.6960    -0.5780     1.9140 c3         1 MAM       0.169600
      7 O1           1.9520     1.1100     0.4640 os         1 MAM      -0.486000
      8 O2           0.8130    -1.5050    -2.0050 oh         1 MAM      -0.691000
      9 O3          -0.7550     0.6320    -2.9000 oh         1 MAM      -0.653000
     10 O4          -2.4970     0.9300    -0.6220 oh         1 MAM      -0.725000
     11 O5           0.5250    -0.7170     0.8850 os         1 MAM      -0.454000
     12 O6          -1.1510    -0.6810     3.2470 oh         1 MAM      -0.715000
     13 H1           2.4390    -0.8700     0.0810 h2         1 MAM       0.065700
     14 H2           1.8420     0.3220    -2.0770 h1         1 MAM       0.047700
     15 H3          -0.0030     1.6980    -1.2720 h1         1 MAM       0.059700
     16 H4          -1.5540    -0.9180    -0.8530 h1         1 MAM       0.069700
     17 H5          -0.4870     1.0830     1.2180 h1         1 MAM       0.064700
     18 H61         -2.6110     0.0290     1.9330 h1         1 MAM       0.036200
     19 H62         -1.9760    -1.5750     1.5450 h1         1 MAM       0.036200
     20 H71          2.8630     2.2210     1.9830 h1         1 MAM       0.038367
     21 H72          1.9160     0.8280     2.5450 h1         1 MAM       0.038367
     22 H73          3.5020     0.5760     1.7730 h1         1 MAM       0.038367
     23 HO2          1.6580    -2.0110    -1.9610 ho         1 MAM       0.502000
     24 HO3         -0.4880    -0.2540    -3.2410 ho         1 MAM       0.447000
     25 HO4         -2.6010     1.1560    -1.5780 ho         1 MAM       0.522000
     26 HO6         -1.8210    -1.1510     3.7960 ho         1 MAM       0.502000
     27 C7           2.5880     1.1840     1.7530 c3         1 MAM       0.148900
@<TRIPOS>BOND
     1     1     2 1   
     2     1     7 1   
     3     1    11 1   
     4     1    13 1   
     5     2     3 1   
     6     2     8 1   
     7     2    14 1   
     8     3     4 1   
     9     3     9 1   
    10     3    15 1   
    11     4     5 1   
    12     4    10 1   
    13     4    16 1   
    14     5     6 1   
    15     5    11 1   
    16     5    17 1   
    17     6    12 1   
    18     6    18 1   
    19     6    19 1   
    20     7    27 1   
    21     8    23 1   
    22     9    24 1   
    23    10    25 1   
    24    12    26 1   
    25    20    27 1   
    26    21    27 1   
    27    22    27 1   
@<TRIPOS>SUBSTRUCTURE
     1 MAM         1 TEMP              0 ****  ****    0 ROOT
