@<TRIPOS>MOLECULE
MAM
   27    27     1     0     0
SMALL
abcg2


@<TRIPOS>ATOM
      1 C1           1.5180    -0.2830     0.0670 c6         1 MAM       0.350300
      2 C2           1.0620    -0.2900    -1.3960 c6         1 MAM       0.123300
      3 C3          -0.2200     0.5280    -1.5270 c6         1 MAM       0.143300
      4 C4          -1.2790     0.0300    -0.5500 c6         1 MAM       0.146300
      5 C5          -0.7040     0.0370     0.8670 c6         1 MAM       0.172300
      6 C6          -1.6580    -0.5760     1.8690 c3         1 MAM       0.169600
      7 O1           1.9650     1.0000     0.3670 os         1 MAM      -0.486000
      8 O2           0.7910    -1.6040    -1.8140 oh         1 MAM      -0.691000
      9 O3          -0.7690     0.4680    -2.8220 oh         1 MAM      -0.653000
     10 O4          -2.4100     0.8690    -0.5580 oh         1 MAM      -0.725000
     11 O5           0.4960    -0.7150     0.9160 os         1 MAM      -0.454000
     12 O6          -1.1090    -0.4440     3.1590 oh         1 MAM      -0.715000
     13 H1           2.3290    -1.0130     0.2110 h2         1 MAM       0.065700
     14 H2           1.8510     0.1690    -2.0080 h1         1 MAM       0.047700
     15 H3           0.0150     1.5660    -1.2540 h1         1 MAM       0.059700
     16 H4          -1.5570    -1.0020    -0.8140 h1         1 MAM       0.069700
     17 H5          -0.5190     1.0820     1.1570 h1         1 MAM       0.064700
     18 H61         -2.6230    -0.0650     1.7870 h1         1 MAM       0.036200
     19 H62         -1.8270    -1.6300     1.6030 h1         1 MAM       0.036200
     20 H71          2.9870     2.1190     1.7090 h1         1 MAM       0.038367
     21 H72          1.8030     1.0310     2.4500 h1         1 MAM       0.038367
     22 H73          3.3270     0.3830     1.8140 h1         1 MAM       0.038367
     23 HO2          1.6240    -2.0810    -1.8840 ho         1 MAM       0.502000
     24 HO3         -0.2920     1.0810    -3.3890 ho         1 MAM       0.447000
     25 HO4         -2.7390     0.9110    -1.4620 ho         1 MAM       0.522000
     26 HO6         -1.7690    -0.7390     3.7920 ho         1 MAM       0.502000
     27 C7           2.5410     1.1280     1.6510 c3         1 MAM       0.148900
@<TRIPOS>BOND
     1     1     2 1   
     2     1     7 1   
     3     1    11 1   
     4     1    13 1   
     5     2     3 1   
     6     2     8 1   
     7     2    14 1   
     8     3     4 1   
     9     3     9 1   
    10     3    15 1   
    11     4     5 1   
    12     4    10 1   
    13     4    16 1   
    14     5     6 1   
    15     5    11 1   
    16     5    17 1   
    17     6    12 1   
    18     6    18 1   
    19     6    19 1   
    20     7    27 1   
    21     8    23 1   
    22     9    24 1   
    23    10    25 1   
    24    12    26 1   
    25    20    27 1   
    26    21    27 1   
    27    22    27 1   
@<TRIPOS>SUBSTRUCTURE
     1 MAM         1 TEMP              0 ****  ****    0 ROOT
