@<TRIPOS>MOLECULE
MAN
   24    24     1     0     0
SMALL
abcg2


@<TRIPOS>ATOM
      1 C1          99.7260   -29.3160    24.1660 c6         1 MAN       0.385300
      2 C2         101.2060   -29.3890    24.5310 c6         1 MAN       0.155300
      3 C3         102.0170   -28.5080    23.5870 c6         1 MAN       0.136300
      4 C4         101.7210   -28.8720    22.1370 c6         1 MAN       0.102300
      5 C5         100.2100   -28.7940    21.8870 c6         1 MAN       0.148300
      6 C6          99.8480   -29.2780    20.5000 c3         1 MAN       0.169600
      7 O1          99.2730   -28.0470    24.5170 oh         1 MAN      -0.742000
      8 O2         101.5820   -30.7410    24.4350 oh         1 MAN      -0.717000
      9 O3         103.3770   -28.6820    23.9060 oh         1 MAN      -0.731000
     10 O4         102.4340   -27.9600    21.3280 oh         1 MAN      -0.726000
     11 O5          99.5180   -29.6130    22.8140 os         1 MAN      -0.457000
     12 O6          98.4690   -29.0910    20.2930 oh         1 MAN      -0.706000
     13 H1          99.1810   -30.0980    24.7080 h2         1 MAN       0.084700
     14 H2         101.3270   -29.0200    25.5590 h1         1 MAN       0.066700
     15 H3         101.7100   -27.4630    23.7440 h1         1 MAN       0.070700
     16 H4         102.0580   -29.9010    21.9560 h1         1 MAN       0.057700
     17 H5          99.8960   -27.7450    21.9870 h1         1 MAN       0.070700
     18 H61        100.4410   -28.7140    19.7700 h1         1 MAN       0.023700
     19 H62        100.1380   -30.3340    20.4030 h1         1 MAN       0.023700
     20 HO1         98.3130   -28.0240    24.4410 ho         1 MAN       0.525000
     21 HO2        102.5390   -30.7890    24.5330 ho         1 MAN       0.525000
     22 HO3        103.9010   -28.2490    23.2240 ho         1 MAN       0.524000
     23 HO4        102.6840   -28.3920    20.5060 ho         1 MAN       0.509000
     24 HO6         98.2600   -29.3730    19.3980 ho         1 MAN       0.503000
@<TRIPOS>BOND
     1     1     2 1   
     2     1     7 1   
     3     1    11 1   
     4     1    13 1   
     5     2     3 1   
     6     2     8 1   
     7     2    14 1   
     8     3     4 1   
     9     3     9 1   
    10     3    15 1   
    11     4     5 1   
    12     4    10 1   
    13     4    16 1   
    14     5     6 1   
    15     5    11 1   
    16     5    17 1   
    17     6    12 1   
    18     6    18 1   
    19     6    19 1   
    20     7    20 1   
    21     8    21 1   
    22     9    22 1   
    23    10    23 1   
    24    12    24 1   
@<TRIPOS>SUBSTRUCTURE
     1 MAN         1 TEMP              0 ****  ****    0 ROOT
