@<TRIPOS>MOLECULE
MAN
   24    24     1     0     0
SMALL
No Charge or Current Charge


@<TRIPOS>ATOM
      1 C1          99.6870   -29.3260    24.2460 c6         1 MAN       0.385300
      2 C2         101.2090   -29.4280    24.6340 c6         1 MAN       0.155300
      3 C3         102.0560   -28.5480    23.6650 c6         1 MAN       0.136300
      4 C4         101.7500   -28.8870    22.1730 c6         1 MAN       0.102300
      5 C5         100.2120   -28.7700    21.9150 c6         1 MAN       0.148300
      6 C6          99.8060   -29.1880    20.4620 c3         1 MAN       0.169600
      7 O1          99.1550   -28.0210    24.4730 oh         1 MAN      -0.742000
      8 O2         101.7200   -30.7790    24.5710 oh         1 MAN      -0.717000
      9 O3         103.4650   -28.7350    23.9200 oh         1 MAN      -0.731000
     10 O4         102.5230   -28.0160    21.3150 oh         1 MAN      -0.726000
     11 O5          99.4860   -29.6230    22.8500 os         1 MAN      -0.457000
     12 O6          98.3850   -29.1340    20.2290 oh         1 MAN      -0.706000
     13 H1          99.1290   -30.0600    24.8520 h2         1 MAN       0.084700
     14 H2         101.3270   -29.0320    25.6530 h1         1 MAN       0.066700
     15 H3         101.7810   -27.4960    23.8380 h1         1 MAN       0.070700
     16 H4         102.0380   -29.9350    21.9920 h1         1 MAN       0.057700
     17 H5          99.9020   -27.7240    22.0580 h1         1 MAN       0.070700
     18 H61        100.3200   -28.5240    19.7540 h1         1 MAN       0.023700
     19 H62        100.1770   -30.2060    20.2820 h1         1 MAN       0.023700
     20 HO1         98.2470   -28.0570    24.0980 ho         1 MAN       0.525000
     21 HO2        102.6910   -30.6450    24.4370 ho         1 MAN       0.525000
     22 HO3        103.9130   -28.3070    23.1500 ho         1 MAN       0.524000
     23 HO4        102.6200   -28.4630    20.4410 ho         1 MAN       0.509000
     24 HO6         98.2290   -29.4870    19.3210 ho         1 MAN       0.503000
@<TRIPOS>BOND
     1     1     2 1   
     2     1     7 1   
     3     1    11 1   
     4     1    13 1   
     5     2     3 1   
     6     2     8 1   
     7     2    14 1   
     8     3     4 1   
     9     3     9 1   
    10     3    15 1   
    11     4     5 1   
    12     4    10 1   
    13     4    16 1   
    14     5     6 1   
    15     5    11 1   
    16     5    17 1   
    17     6    12 1   
    18     6    18 1   
    19     6    19 1   
    20     7    20 1   
    21     8    21 1   
    22     9    22 1   
    23    10    23 1   
    24    12    24 1   
@<TRIPOS>SUBSTRUCTURE
     1 MAN         1 TEMP              0 ****  ****    0 ROOT
