@<TRIPOS>MOLECULE
MAO
   45    47     1     0     0
SMALL
No Charge or Current Charge


@<TRIPOS>ATOM
      1 N           -3.5460    -0.6140    -1.2710 n8         1 MAO      -0.766700
      2 OA          -2.7340     0.0420    -2.2980 os         1 MAO      -0.281300
      3 CB          -2.0060    -0.9340    -3.0770 c3         1 MAO       0.170600
      4 CG          -1.0720    -0.1830    -4.0660 c3         1 MAO       0.151800
      5 ND           0.0580     0.5960    -3.4700 n3         1 MAO      -0.699600
      6 CE           0.6690     1.5040    -4.4730 c3         1 MAO       0.147100
      7 C5           1.0580    -0.2680    -2.7690 c3         1 MAO       0.138800
      8 C4           2.2540     0.4590    -2.0660 c5         1 MAO       0.165300
      9 O4           1.7880     1.3370    -1.0100 os         1 MAO      -0.426000
     10 C1           1.7380     0.5990     0.2370 c5         1 MAO       0.324300
     11 N9           0.3630     0.5170     0.7260 na         1 MAO      -0.298300
     12 C9          -0.0820    -0.0230     1.9050 ca         1 MAO       0.126500
     13 N3           0.5840    -0.6710     2.8820 nb         1 MAO      -0.209000
     14 C2          -0.1590    -1.0750     3.9390 ca         1 MAO       0.174900
     15 N1          -1.4900    -0.8920     4.1090 nb         1 MAO      -0.303000
     16 C6          -2.1250    -0.2470     3.1190 ca         1 MAO       0.446900
     17 N6          -3.4590    -0.0530     3.2930 nv         1 MAO      -1.069900
     18 C7          -1.4310     0.2120     1.9780 ca         1 MAO      -0.096600
     19 N7          -1.9110     0.9000     0.8690 nc         1 MAO      -0.588100
     20 C8          -0.7920     1.0600     0.1300 cd         1 MAO       0.422700
     21 C10          2.4500    -0.7820    -0.0250 c5         1 MAO       0.078300
     22 O2           3.3430    -1.2010     1.0290 oh         1 MAO      -0.689000
     23 C3           3.2410    -0.5010    -1.3340 c5         1 MAO       0.109300
     24 O3           4.4970     0.1080    -1.0150 oh         1 MAO      -0.705000
     25 HN1         -3.1710    -0.2410    -0.3820 hn         1 MAO       0.408000
     26 HN2         -4.4810    -0.1940    -1.3650 hn         1 MAO       0.408000
     27 HB1         -2.7040    -1.5550    -3.6540 h1         1 MAO       0.031200
     28 HB2         -1.4190    -1.6010    -2.4330 h1         1 MAO       0.031200
     29 HG1         -1.7100     0.4880    -4.6570 h1         1 MAO       0.043200
     30 HG2         -0.6690    -0.9230    -4.7720 h1         1 MAO       0.043200
     31 HE1          1.3710     2.2040    -4.0010 h1         1 MAO       0.037367
     32 HE2          1.2070     0.9350    -5.2420 h1         1 MAO       0.037367
     33 HE3         -0.1020     2.1070    -4.9710 h1         1 MAO       0.037367
     34 H5'1         0.5460    -0.8710    -2.0100 h1         1 MAO       0.034200
     35 H5'2         1.4860    -0.9760    -3.4910 h1         1 MAO       0.034200
     36 H4           2.7930     1.0510    -2.8160 h1         1 MAO       0.096700
     37 H1           2.2920     1.1620     0.9990 h2         1 MAO       0.119700
     38 H2           0.3680    -1.5990     4.7350 h5         1 MAO       0.045100
     39 HN61        -3.8300    -0.1340     4.2360 hn         1 MAO       0.504500
     40 HN62        -3.9050     0.6320     2.6880 hn         1 MAO       0.504500
     41 H8          -0.7420     1.5630    -0.8300 h5         1 MAO       0.108800
     42 H6           1.6960    -1.5620    -0.2080 h1         1 MAO       0.058700
     43 HO2          2.7860    -1.5050     1.7870 ho         1 MAO       0.514000
     44 H3           3.4020    -1.4250    -1.9080 h1         1 MAO       0.055700
     45 HO3          4.6760    -0.2250    -0.0980 ho         1 MAO       0.525000
@<TRIPOS>BOND
     1     1     2 1   
     2     1    25 1   
     3     1    26 1   
     4     2     3 1   
     5     3     4 1   
     6     3    27 1   
     7     3    28 1   
     8     4     5 1   
     9     4    29 1   
    10     4    30 1   
    11     5     6 1   
    12     5     7 1   
    13     6    31 1   
    14     6    32 1   
    15     6    33 1   
    16     7     8 1   
    17     7    34 1   
    18     7    35 1   
    19     8     9 1   
    20     8    23 1   
    21     8    36 1   
    22     9    10 1   
    23    10    11 1   
    24    10    21 1   
    25    10    37 1   
    26    11    12 1   
    27    11    20 1   
    28    12    13 ar  
    29    12    18 ar  
    30    13    14 ar  
    31    14    15 ar  
    32    14    38 1   
    33    15    16 ar  
    34    16    17 1   
    35    16    18 ar  
    36    17    39 1   
    37    17    40 1   
    38    18    19 1   
    39    19    20 2   
    40    20    41 1   
    41    21    22 1   
    42    21    23 1   
    43    21    42 1   
    44    22    43 1   
    45    23    24 1   
    46    23    44 1   
    47    24    45 1   
@<TRIPOS>SUBSTRUCTURE
     1 MAO         1 TEMP              0 ****  ****    0 ROOT
