@<TRIPOS>MOLECULE
MAO
   45    47     1     0     0
SMALL
bcc


@<TRIPOS>ATOM
      1 N           -3.5550    -0.8490    -1.6670 n8         1 MAO      -0.656300
      2 OA          -2.7010    -0.0760    -2.4820 os         1 MAO      -0.258100
      3 CB          -1.8790    -0.9220    -3.2540 c3         1 MAO       0.147400
      4 CG          -0.9420    -0.0600    -4.0750 c3         1 MAO       0.151800
      5 ND           0.0740     0.6400    -3.2980 n3         1 MAO      -0.699600
      6 CE           0.5530     1.8120    -4.0060 c3         1 MAO       0.147100
      7 C5           1.1550    -0.2560    -2.9440 c3         1 MAO       0.138800
      8 C4           2.2220     0.3510    -2.0330 c5         1 MAO       0.142100
      9 O4           1.6710     1.1190    -0.9610 os         1 MAO      -0.379600
     10 C1           1.6760     0.4000     0.2310 c5         1 MAO       0.271800
     11 N9           0.3320     0.4010     0.7760 na         1 MAO      -0.269000
     12 C9          -0.0190     0.2540     2.0860 ca         1 MAO       0.454800
     13 N3           0.7740     0.1570     3.1520 nb         1 MAO      -0.735000
     14 C2           0.0790     0.0320     4.2680 ca         1 MAO       0.700900
     15 N1          -1.2430    -0.0090     4.4210 nb         1 MAO      -0.829000
     16 C6          -2.0270     0.0930     3.3420 ca         1 MAO       0.775200
     17 N6          -3.3520     0.0510     3.4890 nv         1 MAO      -0.959500
     18 C7          -1.4060     0.2360     2.0880 ca         1 MAO      -0.227200
     19 N7          -1.8950     0.3750     0.8150 nc         1 MAO      -0.588100
     20 C8          -0.8330     0.4690     0.0650 cd         1 MAO       0.422700
     21 C10          2.1850    -1.0080    -0.1100 c5         1 MAO       0.055100
     22 O2           2.8920    -1.5400     0.9710 oh         1 MAO      -0.566800
     23 C3           3.0390    -0.7380    -1.3550 c5         1 MAO       0.086100
     24 O3           4.2920    -0.2210    -0.9950 oh         1 MAO      -0.582800
     25 HN1         -3.3520    -0.5370    -0.7200 hn         1 MAO       0.352800
     26 HN2         -4.4890    -0.5140    -1.8790 hn         1 MAO       0.352800
     27 HB1         -2.4800    -1.5300    -3.9420 h1         1 MAO       0.031200
     28 HB2         -1.3290    -1.6220    -2.6130 h1         1 MAO       0.031200
     29 HG1         -1.5440     0.6820    -4.6060 h1         1 MAO       0.043200
     30 HG2         -0.4900    -0.6930    -4.8560 h1         1 MAO       0.043200
     31 HE1          1.2160     2.4050    -3.3770 h1         1 MAO       0.037367
     32 HE2          1.0930     1.5670    -4.9320 h1         1 MAO       0.037367
     33 HE3         -0.2900     2.4500    -4.2710 h1         1 MAO       0.037367
     34 H5'1         0.7280    -1.1410    -2.4650 h1         1 MAO       0.034200
     35 H5'2         1.6840    -0.6290    -3.8390 h1         1 MAO       0.034200
     36 H4           2.8680     1.0190    -2.6080 h1         1 MAO       0.096700
     37 H1           2.3230     0.8710     0.9790 h2         1 MAO       0.119700
     38 H2           0.6550    -0.0500     5.1840 h5         1 MAO       0.045100
     39 HN61        -3.7600    -0.0360     4.4040 hn         1 MAO       0.449300
     40 HN62        -3.9650     0.1590     2.7000 hn         1 MAO       0.449300
     41 H8          -0.8350     0.6080    -1.0080 h5         1 MAO       0.108800
     42 H6           1.3330    -1.6430    -0.3820 h1         1 MAO       0.058700
     43 HO2          2.9220    -2.4980     0.8810 ho         1 MAO       0.415000
     44 H3           3.1310    -1.6310    -1.9870 h1         1 MAO       0.055700
     45 HO3          4.6140    -0.7270    -0.2390 ho         1 MAO       0.426000
@<TRIPOS>BOND
     1     1     2 1   
     2     1    25 1   
     3     1    26 1   
     4     2     3 1   
     5     3     4 1   
     6     3    27 1   
     7     3    28 1   
     8     4     5 1   
     9     4    29 1   
    10     4    30 1   
    11     5     6 1   
    12     5     7 1   
    13     6    31 1   
    14     6    32 1   
    15     6    33 1   
    16     7     8 1   
    17     7    34 1   
    18     7    35 1   
    19     8     9 1   
    20     8    23 1   
    21     8    36 1   
    22     9    10 1   
    23    10    11 1   
    24    10    21 1   
    25    10    37 1   
    26    11    12 1   
    27    11    20 1   
    28    12    13 ar  
    29    12    18 ar  
    30    13    14 ar  
    31    14    15 ar  
    32    14    38 1   
    33    15    16 ar  
    34    16    17 1   
    35    16    18 ar  
    36    17    39 1   
    37    17    40 1   
    38    18    19 1   
    39    19    20 2   
    40    20    41 1   
    41    21    22 1   
    42    21    23 1   
    43    21    42 1   
    44    22    43 1   
    45    23    24 1   
    46    23    44 1   
    47    24    45 1   
@<TRIPOS>SUBSTRUCTURE
     1 MAO         1 TEMP              0 ****  ****    0 ROOT
