@<TRIPOS>MOLECULE
MAQ
   22    23     1     0     0
SMALL
abcg2


@<TRIPOS>ATOM
      1 C1           0.0720     0.0580     2.8000 ca         1 MAQ      -0.056000
      2 C2           0.9820     0.0300     1.7570 ca         1 MAQ      -0.138300
      3 C9           2.4610     0.0240     2.0020 c3         1 MAQ      -0.045800
      4 C3           0.4630     0.0080     0.4530 ca         1 MAQ       0.323000
      5 N3           1.3040    -0.0160    -0.6380 na         1 MAQ      -0.934200
      6 C8           0.8130    -0.0290    -1.8990 cc         1 MAQ       0.906100
      7 N2           1.7010    -0.0190    -2.8960 nv         1 MAQ      -1.063200
      8 N1          -0.4670    -0.0350    -2.1810 nd         1 MAQ      -0.794100
      9 C7          -1.3900    -0.0180    -1.1850 c          1 MAQ       0.737100
     10 O1          -2.5900    -0.0260    -1.4380 o          1 MAQ      -0.559100
     11 C4          -0.9100     0.0090     0.2110 ca         1 MAQ      -0.219600
     12 C5          -1.7940     0.0360     1.2900 ca         1 MAQ      -0.020000
     13 C6          -1.3060     0.0610     2.5790 ca         1 MAQ      -0.150000
     14 H1           0.4450     0.0770     3.8170 ha         1 MAQ       0.113000
     15 H91          2.9410    -0.8630     1.5820 hc         1 MAQ       0.041367
     16 H92          2.9530     0.8970     1.5650 hc         1 MAQ       0.041367
     17 H93          2.6740     0.0340     3.0690 hc         1 MAQ       0.041367
     18 H3           2.3030    -0.0050    -0.4960 hn         1 MAQ       0.500000
     19 H21          1.3650    -0.1110    -3.8390 hn         1 MAQ       0.507000
     20 H22          2.6890    -0.1110    -2.7390 hn         1 MAQ       0.507000
     21 H5          -2.8590     0.0370     1.1040 ha         1 MAQ       0.142000
     22 H6          -1.9860     0.0830     3.4210 ha         1 MAQ       0.121000
@<TRIPOS>BOND
     1     1     2 ar  
     2     1    13 ar  
     3     1    14 1   
     4     2     3 1   
     5     2     4 ar  
     6     3    15 1   
     7     3    16 1   
     8     3    17 1   
     9     4     5 1   
    10     4    11 ar  
    11     5     6 1   
    12     5    18 1   
    13     6     7 1   
    14     6     8 2   
    15     7    19 1   
    16     7    20 1   
    17     8     9 1   
    18     9    10 2   
    19     9    11 1   
    20    11    12 ar  
    21    12    13 ar  
    22    12    21 1   
    23    13    22 1   
@<TRIPOS>SUBSTRUCTURE
     1 MAQ         1 TEMP              0 ****  ****    0 ROOT
