@<TRIPOS>MOLECULE
MAQ
   22    23     1     0     0
SMALL
No Charge or Current Charge


@<TRIPOS>ATOM
      1 C1           0.0770     0.0240     2.8200 ca         1 MAQ      -0.056000
      2 C2           0.9730     0.0430     1.7310 ca         1 MAQ      -0.138300
      3 C9           2.4770     0.0640     2.0040 c3         1 MAQ      -0.045800
      4 C3           0.4610     0.0430     0.4130 ca         1 MAQ       0.323000
      5 N3           1.3210     0.0670    -0.6710 na         1 MAQ      -0.934200
      6 C8           0.8490     0.0360    -1.9180 cc         1 MAQ       0.906100
      7 N2           1.7310     0.0350    -2.8600 nv         1 MAQ      -1.063200
      8 N1          -0.4030     0.0290    -2.1930 nd         1 MAQ      -0.794100
      9 C7          -1.3690     0.0280    -1.2020 c          1 MAQ       0.737100
     10 O1          -2.5490     0.0260    -1.5180 o          1 MAQ      -0.559100
     11 C4          -0.9120     0.0260     0.2000 ca         1 MAQ      -0.219600
     12 C5          -1.8100     0.0060     1.2860 ca         1 MAQ      -0.020000
     13 C6          -1.3090     0.0050     2.5970 ca         1 MAQ      -0.150000
     14 H1           0.4530     0.0230     3.8410 ha         1 MAQ       0.113000
     15 H91          2.9720    -0.8060     1.5550 hc         1 MAQ       0.041367
     16 H92          2.9400     0.9690     1.5920 hc         1 MAQ       0.041367
     17 H93          2.6970     0.0450     3.0780 hc         1 MAQ       0.041367
     18 H3           2.3140     0.1560    -0.5400 hn         1 MAQ       0.500000
     19 H21          1.2990    -0.1360    -3.7570 hn         1 MAQ       0.507000
     20 H22          2.5350    -0.5450    -2.6770 hn         1 MAQ       0.507000
     21 H5          -2.8860    -0.0080     1.1170 ha         1 MAQ       0.142000
     22 H6          -1.9960    -0.0100     3.4400 ha         1 MAQ       0.121000
@<TRIPOS>BOND
     1     1     2 ar  
     2     1    13 ar  
     3     1    14 1   
     4     2     3 1   
     5     2     4 ar  
     6     3    15 1   
     7     3    16 1   
     8     3    17 1   
     9     4     5 1   
    10     4    11 ar  
    11     5     6 1   
    12     5    18 1   
    13     6     7 1   
    14     6     8 2   
    15     7    19 1   
    16     7    20 1   
    17     8     9 1   
    18     9    10 2   
    19     9    11 1   
    20    11    12 ar  
    21    12    13 ar  
    22    12    21 1   
    23    13    22 1   
@<TRIPOS>SUBSTRUCTURE
     1 MAQ         1 TEMP              0 ****  ****    0 ROOT
