@<TRIPOS>MOLECULE
MAR
   86    91     1     0     0
SMALL
No Charge or Current Charge


@<TRIPOS>ATOM
      1 C1           1.2440     0.9880    -7.6450 ca         1 MAR      -0.109000
      2 C2           2.4130     0.5730    -8.2900 ca         1 MAR      -0.052000
      3 C3           3.3260    -0.2420    -7.6150 ca         1 MAR      -0.200000
      4 C4           3.0840    -0.6440    -6.2820 ca         1 MAR       0.198100
      5 O4           3.9880    -1.4650    -5.6300 os         1 MAR      -0.306100
      6 C5           1.9000    -0.2160    -5.6140 ca         1 MAR      -0.167600
      7 C6           1.6140    -0.6030    -4.1750 c          1 MAR       0.620300
      8 O6           2.4550    -1.1550    -3.4730 o          1 MAR      -0.555100
      9 C7           0.2550    -0.2620    -3.5750 ca         1 MAR      -0.236600
     10 C8          -0.1030    -0.7290    -2.2810 ca         1 MAR       0.214100
     11 O8           0.7530    -1.5410    -1.5920 oh         1 MAR      -0.553100
     12 C9          -1.3500    -0.4010    -1.6980 ca         1 MAR      -0.077300
     13 C10         -1.6790    -0.8930    -0.2720 c6         1 MAR       0.237600
     14 O10         -0.6700    -0.3600     0.6200 os         1 MAR      -0.480000
     15 C11         -3.0860    -0.4970     0.2450 c6         1 MAR      -0.093400
     16 C12         -4.2110    -0.4110    -0.8200 c6         1 MAR       0.087000
     17 O12         -5.3710     0.1760    -0.1850 oh         1 MAR      -0.648000
     18 C13         -4.6180    -1.8260    -1.4110 c          1 MAR       0.541100
     19 O13         -5.6750    -2.3420    -1.0620 o          1 MAR      -0.503100
     20 C14         -3.7560    -2.5320    -2.4680 c3         1 MAR      -0.192100
     21 C15         -3.7120     0.5880    -1.9040 c6         1 MAR      -0.051100
     22 C16         -2.2910     0.3350    -2.4500 ca         1 MAR      -0.031300
     23 C17         -1.9390     0.8230    -3.7280 ca         1 MAR       0.189100
     24 O17         -2.8470     1.5740    -4.4200 oh         1 MAR      -0.548100
     25 C18         -0.6720     0.5400    -4.2980 ca         1 MAR      -0.222600
     26 C19         -0.3130     1.0640    -5.6730 c          1 MAR       0.610300
     27 O19         -1.0560     1.8480    -6.2590 o          1 MAR      -0.570100
     28 C20          0.9720     0.6000    -6.3140 ca         1 MAR      -0.085600
     29 C21          5.2040    -1.9380    -6.2370 c3         1 MAR       0.145900
     30 C22         -0.4600    -1.0870     1.8480 c6         1 MAR       0.388300
     31 C23          0.9670    -0.8280     2.3880 c6         1 MAR      -0.089400
     32 C24          1.1290     0.6340     2.8690 c6         1 MAR       0.159500
     33 N3           2.5150     0.8720     3.3590 n8         1 MAR      -0.995200
     34 C25          0.0190     0.9940     3.9150 c6         1 MAR       0.151300
     35 O2           0.2220     0.2750     5.1660 os         1 MAR      -0.461000
     36 C26         -1.3700     0.6920     3.2530 c6         1 MAR       0.158300
     37 O5          -1.4450    -0.6910     2.8260 os         1 MAR      -0.475000
     38 C27         -2.6120     0.9500     4.1410 c3         1 MAR      -0.087100
     39 CB1         -0.1970     0.9540     6.3650 c6         1 MAR       0.393300
     40 CB2         -0.3790    -0.0570     7.5210 c6         1 MAR      -0.139400
     41 CB3          0.9750    -0.6770     7.9320 c6         1 MAR       0.177300
     42 OB3          0.8010    -1.5470     9.0640 oh         1 MAR      -0.648000
     43 CB4          2.0000     0.4460     8.2690 c6         1 MAR       0.149300
     44 OB4          3.2750    -0.1320     8.6120 oh         1 MAR      -0.702000
     45 CB5          2.1020     1.4180     7.0540 c6         1 MAR       0.131300
     46 OB5          0.7920     1.9440     6.7250 os         1 MAR      -0.482000
     47 CB6          3.0100     2.6440     7.3300 c3         1 MAR      -0.087100
     48 H1           0.5430     1.6150    -8.1930 ha         1 MAR       0.143000
     49 H2           2.6070     0.8790    -9.3160 ha         1 MAR       0.121000
     50 H3           4.2190    -0.5510    -8.1490 ha         1 MAR       0.124000
     51 HO8          1.5910    -1.5730    -2.1230 ho         1 MAR       0.523000
     52 H10         -1.5990    -1.9900    -0.2800 h1         1 MAR       0.065700
     53 H111        -3.0070     0.4860     0.7300 hc         1 MAR       0.071700
     54 H112        -3.3890    -1.1940     1.0380 hc         1 MAR       0.071700
     55 HO12        -6.0330    -0.5510    -0.0990 ho         1 MAR       0.450000
     56 H141        -4.2110    -3.4670    -2.8130 hc         1 MAR       0.064700
     57 H142        -3.5760    -1.8550    -3.3100 hc         1 MAR       0.064700
     58 H143        -2.7510    -2.7120    -2.0780 hc         1 MAR       0.064700
     59 H151        -3.7330     1.6070    -1.4940 hc         1 MAR       0.075200
     60 H152        -4.4440     0.5900    -2.7220 hc         1 MAR       0.075200
     61 HO17        -2.3950     1.8600    -5.2570 ho         1 MAR       0.518000
     62 H211         5.7590    -2.5680    -5.5310 h1         1 MAR       0.047367
     63 H212         4.9870    -2.5390    -7.1290 h1         1 MAR       0.047367
     64 H213         5.8510    -1.0990    -6.5220 h1         1 MAR       0.047367
     65 H7          -0.5540    -2.1670     1.6520 h2         1 MAR       0.083700
     66 H2'1         1.1680    -1.5210     3.2150 hc         1 MAR       0.074200
     67 H2'2         1.6980    -1.0550     1.6020 hc         1 MAR       0.074200
     68 H8           0.9940     1.3010     2.0040 h1         1 MAR       0.029700
     69 HN'1         3.1520     0.8960     2.5550 hn         1 MAR       0.398000
     70 HN'2         2.5700     1.8210     3.7420 hn         1 MAR       0.398000
     71 H4           0.0860     2.0740     4.1160 h1         1 MAR       0.045700
     72 H5          -1.4710     1.3380     2.3680 h1         1 MAR       0.043700
     73 H6'1        -3.5340     0.8100     3.5640 hc         1 MAR       0.044033
     74 H6'2        -2.6500     0.2630     4.9940 hc         1 MAR       0.044033
     75 H6'3        -2.6180     1.9780     4.5220 hc         1 MAR       0.044033
     76 HB1         -1.1570     1.4590     6.1960 h2         1 MAR       0.059700
     77 HB21        -0.8360     0.4560     8.3770 hc         1 MAR       0.062200
     78 HB22        -1.0810    -0.8420     7.2120 hc         1 MAR       0.062200
     79 HB3          1.3650    -1.2520     7.0770 h1         1 MAR       0.061700
     80 HOB3         0.1600    -2.2410     8.7930 ho         1 MAR       0.441000
     81 HB4          1.6130     1.0160     9.1270 h1         1 MAR       0.044700
     82 HOB4         3.0540    -0.9020     9.1880 ho         1 MAR       0.502000
     83 HB5          2.5040     0.8760     6.1850 h1         1 MAR       0.085700
     84 HB61         3.0260     3.3220     6.4690 hc         1 MAR       0.040700
     85 HB62         2.6590     3.2110     8.2010 hc         1 MAR       0.040700
     86 HB63         4.0430     2.3350     7.5260 hc         1 MAR       0.040700
@<TRIPOS>BOND
     1     1     2 ar  
     2     1    28 ar  
     3     1    48 1   
     4     2     3 ar  
     5     2    49 1   
     6     3     4 ar  
     7     3    50 1   
     8     4     5 1   
     9     4     6 ar  
    10     5    29 1   
    11     6     7 1   
    12     6    28 ar  
    13     7     8 2   
    14     7     9 1   
    15     9    10 ar  
    16     9    25 ar  
    17    10    11 1   
    18    10    12 ar  
    19    11    51 1   
    20    12    13 1   
    21    12    22 ar  
    22    13    14 1   
    23    13    15 1   
    24    13    52 1   
    25    14    30 1   
    26    15    16 1   
    27    15    53 1   
    28    15    54 1   
    29    16    17 1   
    30    16    18 1   
    31    16    21 1   
    32    17    55 1   
    33    18    19 2   
    34    18    20 1   
    35    20    56 1   
    36    20    57 1   
    37    20    58 1   
    38    21    22 1   
    39    21    59 1   
    40    21    60 1   
    41    22    23 ar  
    42    23    24 1   
    43    23    25 ar  
    44    24    61 1   
    45    25    26 1   
    46    26    27 2   
    47    26    28 1   
    48    29    62 1   
    49    29    63 1   
    50    29    64 1   
    51    30    31 1   
    52    30    37 1   
    53    30    65 1   
    54    31    32 1   
    55    31    66 1   
    56    31    67 1   
    57    32    33 1   
    58    32    34 1   
    59    32    68 1   
    60    33    69 1   
    61    33    70 1   
    62    34    35 1   
    63    34    36 1   
    64    34    71 1   
    65    35    39 1   
    66    36    37 1   
    67    36    38 1   
    68    36    72 1   
    69    38    73 1   
    70    38    74 1   
    71    38    75 1   
    72    39    40 1   
    73    39    46 1   
    74    39    76 1   
    75    40    41 1   
    76    40    77 1   
    77    40    78 1   
    78    41    42 1   
    79    41    43 1   
    80    41    79 1   
    81    42    80 1   
    82    43    44 1   
    83    43    45 1   
    84    43    81 1   
    85    44    82 1   
    86    45    46 1   
    87    45    47 1   
    88    45    83 1   
    89    47    84 1   
    90    47    85 1   
    91    47    86 1   
@<TRIPOS>SUBSTRUCTURE
     1 MAR         1 TEMP              0 ****  ****    0 ROOT
