@<TRIPOS>MOLECULE
MAR
   86    91     1     0     0
SMALL
abcg2


@<TRIPOS>ATOM
      1 C1           1.5670     0.6910    -7.4140 ca         1 MAR      -0.109000
      2 C2           2.8360     0.3500    -7.8520 ca         1 MAR      -0.052000
      3 C3           3.7040    -0.3420    -7.0310 ca         1 MAR      -0.200000
      4 C4           3.3210    -0.7120    -5.7370 ca         1 MAR       0.198100
      5 O4           4.1320    -1.3820    -4.9260 os         1 MAR      -0.306100
      6 C5           2.0310    -0.3660    -5.2700 ca         1 MAR      -0.167600
      7 C6           1.5750    -0.7190    -3.9140 c          1 MAR       0.620300
      8 O6           2.2910    -1.3550    -3.1360 o          1 MAR      -0.555100
      9 C7           0.2430    -0.2960    -3.4870 ca         1 MAR      -0.236600
     10 C8          -0.1840    -0.5810    -2.1910 ca         1 MAR       0.214100
     11 O8           0.5630    -1.2600    -1.3330 oh         1 MAR      -0.553100
     12 C9          -1.4730    -0.1690    -1.7560 ca         1 MAR      -0.077300
     13 C10         -1.8490    -0.4220    -0.3120 c6         1 MAR       0.237600
     14 O10         -0.8660     0.1920     0.4990 os         1 MAR      -0.480000
     15 C11         -3.2130     0.1540     0.0540 c6         1 MAR      -0.093400
     16 C12         -4.2550    -0.0090    -1.0440 c6         1 MAR       0.087000
     17 O12         -5.4490     0.5480    -0.5450 oh         1 MAR      -0.648000
     18 C13         -4.4730    -1.5020    -1.3340 c          1 MAR       0.541100
     19 O13         -4.0160    -2.0180    -2.3280 o          1 MAR      -0.503100
     20 C14         -5.2860    -2.2760    -0.3330 c3         1 MAR      -0.192100
     21 C15         -3.7650     0.7400    -2.2770 c6         1 MAR      -0.051100
     22 C16         -2.3480     0.4110    -2.6440 ca         1 MAR      -0.031300
     23 C17         -1.9140     0.7220    -3.9570 ca         1 MAR       0.189100
     24 O17         -2.7810     1.3450    -4.7470 oh         1 MAR      -0.548100
     25 C18         -0.6290     0.3840    -4.3690 ca         1 MAR      -0.222600
     26 C19         -0.1950     0.7160    -5.7120 c          1 MAR       0.610300
     27 O19         -0.9400     1.3050    -6.4970 o          1 MAR      -0.570100
     28 C20          1.1710     0.3360    -6.1340 ca         1 MAR      -0.085600
     29 C21          5.4260    -1.7470    -5.3760 c3         1 MAR       0.145900
     30 C22         -0.3520    -0.5780     1.5500 c6         1 MAR       0.388300
     31 C23          0.8840     0.1260     2.0820 c6         1 MAR      -0.089400
     32 C24          0.5230     1.3770     2.8730 c6         1 MAR       0.159500
     33 N3           1.7240     1.9860     3.4140 n8         1 MAR      -0.995200
     34 C25         -0.4790     1.0050     3.9650 c6         1 MAR       0.151300
     35 O2           0.0890     0.1150     4.9050 os         1 MAR      -0.461000
     36 C26         -1.6920     0.3500     3.3040 c6         1 MAR       0.158300
     37 O5          -1.3060    -0.7950     2.5540 os         1 MAR      -0.475000
     38 C27         -2.7520    -0.1000     4.2870 c3         1 MAR      -0.087100
     39 CB1          0.0180     0.4920     6.2460 c6         1 MAR       0.393300
     40 CB2          0.2000    -0.7490     7.1040 c6         1 MAR      -0.139400
     41 CB3          1.6350    -1.2660     7.0720 c6         1 MAR       0.177300
     42 OB3          1.8230    -2.3250     7.9820 oh         1 MAR      -0.648000
     43 CB4          2.5680    -0.1290     7.4470 c6         1 MAR       0.149300
     44 OB4          3.8950    -0.5870     7.3400 oh         1 MAR      -0.702000
     45 CB5          2.3170     1.0570     6.5050 c6         1 MAR       0.131300
     46 OB5          0.9580     1.4740     6.5780 os         1 MAR      -0.482000
     47 CB6          3.1620     2.2680     6.8480 c3         1 MAR      -0.087100
     48 H1           0.8940     1.2310    -8.0640 ha         1 MAR       0.143000
     49 H2           3.1550     0.6250    -8.8480 ha         1 MAR       0.121000
     50 H3           4.6840    -0.5930    -7.4080 ha         1 MAR       0.124000
     51 HO8          1.4090    -1.4760    -1.8040 ho         1 MAR       0.523000
     52 H10         -1.8510    -1.5090    -0.1450 h1         1 MAR       0.065700
     53 H111        -3.1020     1.2270     0.2340 hc         1 MAR       0.071700
     54 H112        -3.5550    -0.2950     0.9890 hc         1 MAR       0.071700
     55 HO12        -6.1080     0.5710    -1.2480 ho         1 MAR       0.450000
     56 H141        -5.1090    -3.3430    -0.4480 hc         1 MAR       0.064700
     57 H142        -5.0760    -1.9820     0.6950 hc         1 MAR       0.064700
     58 H143        -6.3480    -2.0860    -0.5040 hc         1 MAR       0.064700
     59 H151        -3.8490     1.8130    -2.0750 hc         1 MAR       0.075200
     60 H152        -4.4230     0.5410    -3.1270 hc         1 MAR       0.075200
     61 HO17        -2.3350     1.4970    -5.6140 ho         1 MAR       0.518000
     62 H211         5.8850    -2.2920    -4.5550 h1         1 MAR       0.047367
     63 H212         5.3830    -2.3970    -6.2530 h1         1 MAR       0.047367
     64 H213         6.0380    -0.8730    -5.6060 h1         1 MAR       0.047367
     65 H7          -0.0960    -1.5800     1.1890 h2         1 MAR       0.083700
     66 H2'1         1.4260    -0.5630     2.7340 hc         1 MAR       0.074200
     67 H2'2         1.5470     0.3670     1.2480 hc         1 MAR       0.074200
     68 H8          -0.0200     2.0650     2.2080 h1         1 MAR       0.029700
     69 HN'1         2.2720     2.3650     2.6510 hn         1 MAR       0.398000
     70 HN'2         1.4760     2.7760     3.9970 hn         1 MAR       0.398000
     71 H4          -0.8210     1.9250     4.4600 h1         1 MAR       0.045700
     72 H5          -2.1410     1.1030     2.6430 h1         1 MAR       0.043700
     73 H6'1        -3.6050    -0.5290     3.7590 hc         1 MAR       0.044033
     74 H6'2        -2.3720    -0.8500     4.9810 hc         1 MAR       0.044033
     75 H6'3        -3.1180     0.7500     4.8640 hc         1 MAR       0.044033
     76 HB1         -0.9540     0.9540     6.4640 h2         1 MAR       0.059700
     77 HB21        -0.0560    -0.4900     8.1350 hc         1 MAR       0.062200
     78 HB22        -0.5010    -1.5260     6.7850 hc         1 MAR       0.062200
     79 HB3          1.8830    -1.5860     6.0490 h1         1 MAR       0.061700
     80 HOB3         1.2600    -3.0560     7.7090 ho         1 MAR       0.441000
     81 HB4          2.3370     0.1830     8.4790 h1         1 MAR       0.044700
     82 HOB4         4.4720     0.0430     7.7820 ho         1 MAR       0.502000
     83 HB5          2.5490     0.7470     5.4800 h1         1 MAR       0.085700
     84 HB61         2.9340     3.0930     6.1720 hc         1 MAR       0.040700
     85 HB62         2.9870     2.6070     7.8710 hc         1 MAR       0.040700
     86 HB63         4.2250     2.0530     6.7360 hc         1 MAR       0.040700
@<TRIPOS>BOND
     1     1     2 ar  
     2     1    28 ar  
     3     1    48 1   
     4     2     3 ar  
     5     2    49 1   
     6     3     4 ar  
     7     3    50 1   
     8     4     5 1   
     9     4     6 ar  
    10     5    29 1   
    11     6     7 1   
    12     6    28 ar  
    13     7     8 2   
    14     7     9 1   
    15     9    10 ar  
    16     9    25 ar  
    17    10    11 1   
    18    10    12 ar  
    19    11    51 1   
    20    12    13 1   
    21    12    22 ar  
    22    13    14 1   
    23    13    15 1   
    24    13    52 1   
    25    14    30 1   
    26    15    16 1   
    27    15    53 1   
    28    15    54 1   
    29    16    17 1   
    30    16    18 1   
    31    16    21 1   
    32    17    55 1   
    33    18    19 2   
    34    18    20 1   
    35    20    56 1   
    36    20    57 1   
    37    20    58 1   
    38    21    22 1   
    39    21    59 1   
    40    21    60 1   
    41    22    23 ar  
    42    23    24 1   
    43    23    25 ar  
    44    24    61 1   
    45    25    26 1   
    46    26    27 2   
    47    26    28 1   
    48    29    62 1   
    49    29    63 1   
    50    29    64 1   
    51    30    31 1   
    52    30    37 1   
    53    30    65 1   
    54    31    32 1   
    55    31    66 1   
    56    31    67 1   
    57    32    33 1   
    58    32    34 1   
    59    32    68 1   
    60    33    69 1   
    61    33    70 1   
    62    34    35 1   
    63    34    36 1   
    64    34    71 1   
    65    35    39 1   
    66    36    37 1   
    67    36    38 1   
    68    36    72 1   
    69    38    73 1   
    70    38    74 1   
    71    38    75 1   
    72    39    40 1   
    73    39    46 1   
    74    39    76 1   
    75    40    41 1   
    76    40    77 1   
    77    40    78 1   
    78    41    42 1   
    79    41    43 1   
    80    41    79 1   
    81    42    80 1   
    82    43    44 1   
    83    43    45 1   
    84    43    81 1   
    85    44    82 1   
    86    45    46 1   
    87    45    47 1   
    88    45    83 1   
    89    47    84 1   
    90    47    85 1   
    91    47    86 1   
@<TRIPOS>SUBSTRUCTURE
     1 MAR         1 TEMP              0 ****  ****    0 ROOT
