@<TRIPOS>MOLECULE
MAS
   13    12     1     0     0
SMALL
bcc


@<TRIPOS>ATOM
      1 S            0.5880     0.0070     0.1370 s6         1 MAS       1.355700
      2 O1           1.1610    -1.1780    -0.5170 o          1 MAS      -0.710533
      3 O2           1.1400     1.2780    -0.3530 o          1 MAS      -0.710533
      4 N           -1.0310     0.0310    -0.3890 n3         1 MAS      -0.713500
      5 C1          -1.7600     1.2190     0.0230 c3         1 MAS       0.182100
      6 C2          -1.7610    -1.1860    -0.0710 c3         1 MAS       0.182100
      7 H11         -2.7360     1.2120    -0.4640 h1         1 MAS       0.020700
      8 H12         -1.9260     1.2750     1.1060 h1         1 MAS       0.020700
      9 H13         -1.2380     2.1180    -0.2960 h1         1 MAS       0.020700
     10 H21         -1.2250    -2.0590    -0.4350 h1         1 MAS       0.020700
     11 H22         -1.9480    -1.3120     1.0020 h1         1 MAS       0.020700
     12 H23         -2.7260    -1.1530    -0.5770 h1         1 MAS       0.020700
     13 O3           0.5810    -0.0920     1.6080 o          1 MAS      -0.710533
@<TRIPOS>BOND
     1     1     2 1   
     2     1     3 1   
     3     1     4 1   
     4     1    13 1   
     5     4     5 1   
     6     4     6 1   
     7     5     7 1   
     8     5     8 1   
     9     5     9 1   
    10     6    10 1   
    11     6    11 1   
    12     6    12 1   
@<TRIPOS>SUBSTRUCTURE
     1 MAS         1 TEMP              0 ****  ****    0 ROOT
