@<TRIPOS>MOLECULE
MAS
   13    12     1     0     0
SMALL
No Charge or Current Charge


@<TRIPOS>ATOM
      1 S            0.6230     0.0100     0.1670 s6         1 MAS       1.355700
      2 O1           1.1660    -1.1930    -0.4780 o          1 MAS      -0.710533
      3 O2           1.1620     1.2650    -0.3700 o          1 MAS      -0.710533
      4 N           -1.0100     0.0310    -0.3750 n3         1 MAS      -0.713500
      5 C1          -1.7630     1.2370     0.0140 c3         1 MAS       0.182100
      6 C2          -1.7590    -1.2060    -0.0920 c3         1 MAS       0.182100
      7 H11         -2.7690     1.2210    -0.4250 h1         1 MAS       0.020700
      8 H12         -1.8700     1.2990     1.1060 h1         1 MAS       0.020700
      9 H13         -1.2650     2.1500    -0.3370 h1         1 MAS       0.020700
     10 H21         -1.2590    -2.0830    -0.5230 h1         1 MAS       0.020700
     11 H22         -1.8670    -1.3630     0.9890 h1         1 MAS       0.020700
     12 H23         -2.7660    -1.1540    -0.5290 h1         1 MAS       0.020700
     13 O3           0.4950    -0.0540     1.6280 o          1 MAS      -0.710533
@<TRIPOS>BOND
     1     1     2 1   
     2     1     3 1   
     3     1     4 1   
     4     1    13 1   
     5     4     5 1   
     6     4     6 1   
     7     5     7 1   
     8     5     8 1   
     9     5     9 1   
    10     6    10 1   
    11     6    11 1   
    12     6    12 1   
@<TRIPOS>SUBSTRUCTURE
     1 MAS         1 TEMP              0 ****  ****    0 ROOT
