@<TRIPOS>MOLECULE
MAT
   32    32     1     0     0
SMALL
abcg2


@<TRIPOS>ATOM
      1 C1          -4.0630     9.2320     4.7570 c6         1 MAT       0.385300
      2 C2          -3.5970    10.0850     5.9260 c6         1 MAT      -0.127400
      3 C3          -2.2200    10.6850     5.6600 c6         1 MAT       0.163300
      4 C4          -2.2390    11.4530     4.3400 c6         1 MAT       0.151500
      5 C5          -2.7510    10.5130     3.2470 c6         1 MAT       0.158600
      6 C7          -1.7720    14.0180     2.9490 c3         1 MAT      -0.104100
      7 C8          -0.4640    12.3180     1.6320 c3         1 MAT      -0.104100
      8 O1          -3.2720     8.0820     4.7160 oh         1 MAT      -0.680000
      9 O3          -1.8280    11.5800     6.6770 os         1 MAT      -0.467000
     10 N4          -0.8950    11.9180     4.0490 n7         1 MAT      -0.874400
     11 O5          -4.0130     9.9560     3.5560 os         1 MAT      -0.484000
     12 H1          -5.1210     8.9740     4.8780 h2         1 MAT       0.060700
     13 H2          -4.3210    10.8900     6.0740 hc         1 MAT       0.063700
     14 H22         -3.6020     9.4800     6.8360 hc         1 MAT       0.063700
     15 H3          -1.4760     9.8780     5.5740 h1         1 MAT       0.064700
     16 H4          -2.9680    12.2730     4.4520 h1         1 MAT       0.041700
     17 H51         -2.8950    11.0560     2.3130 h1         1 MAT       0.058700
     18 H52         -1.9960     9.7390     3.0630 h1         1 MAT       0.058700
     19 H6           0.2390    13.4250     3.2860 h1         1 MAT       0.044700
     20 H71         -1.9370    14.4700     3.9290 hc         1 MAT       0.036867
     21 H72         -1.4680    14.8110     2.2640 hc         1 MAT       0.036867
     22 H73         -2.7280    13.6300     2.5920 hc         1 MAT       0.036867
     23 H81          0.3030    11.5450     1.6790 hc         1 MAT       0.036867
     24 H82         -1.3670    11.8720     1.2150 hc         1 MAT       0.036867
     25 H83         -0.1300    13.0830     0.9290 hc         1 MAT       0.036867
     26 H91         -0.9850    11.7360     8.5110 h1         1 MAT       0.029700
     27 H92         -2.1420    10.4060     8.3790 h1         1 MAT       0.029700
     28 H93         -0.5400    10.2590     7.6370 h1         1 MAT       0.029700
     29 HO1         -3.6320     7.4770     4.0580 ho         1 MAT       0.454000
     30 HN4         -0.5190    12.2890     4.9110 hn         1 MAT       0.429000
     31 C6          -0.6980    12.9330     3.0090 c3         1 MAT       0.181500
     32 C9          -1.3580    10.9570     7.8480 c3         1 MAT       0.148900
@<TRIPOS>BOND
     1     1     2 1   
     2     1     8 1   
     3     1    11 1   
     4     1    12 1   
     5     2     3 1   
     6     2    13 1   
     7     2    14 1   
     8     3     4 1   
     9     3     9 1   
    10     3    15 1   
    11     4     5 1   
    12     4    10 1   
    13     4    16 1   
    14     5    11 1   
    15     5    17 1   
    16     5    18 1   
    17     6    20 1   
    18     6    21 1   
    19     6    22 1   
    20     6    31 1   
    21     7    23 1   
    22     7    24 1   
    23     7    25 1   
    24     7    31 1   
    25     8    29 1   
    26     9    32 1   
    27    10    30 1   
    28    10    31 1   
    29    19    31 1   
    30    26    32 1   
    31    27    32 1   
    32    28    32 1   
@<TRIPOS>SUBSTRUCTURE
     1 MAT         1 TEMP              0 ****  ****    0 ROOT
