@<TRIPOS>MOLECULE
MAT
   32    32     1     0     0
SMALL
No Charge or Current Charge


@<TRIPOS>ATOM
      1 C1          -4.0820     9.1740     4.8210 c6         1 MAT       0.385300
      2 C2          -3.5500    10.0250     5.9940 c6         1 MAT      -0.127400
      3 C3          -2.1680    10.6520     5.6640 c6         1 MAT       0.163300
      4 C4          -2.2160    11.4250     4.3080 c6         1 MAT       0.151500
      5 C5          -2.7910    10.4830     3.2080 c6         1 MAT       0.158600
      6 C7          -1.7500    14.0820     2.9090 c3         1 MAT      -0.104100
      7 C8          -0.4470    12.3210     1.5520 c3         1 MAT      -0.104100
      8 O1          -3.2760     8.0260     4.6070 oh         1 MAT      -0.680000
      9 O3          -1.7190    11.5410     6.7210 os         1 MAT      -0.467000
     10 N4          -0.8600    11.9910     4.0010 n7         1 MAT      -0.874400
     11 O5          -4.0780     9.9410     3.6080 os         1 MAT      -0.484000
     12 H1          -5.1150     8.8600     5.0450 h2         1 MAT       0.060700
     13 H2          -4.2740    10.8190     6.2200 hc         1 MAT       0.063700
     14 H22         -3.4860     9.3930     6.8890 hc         1 MAT       0.063700
     15 H3          -1.4320     9.8400     5.5630 h1         1 MAT       0.064700
     16 H4          -2.9260    12.2550     4.4430 h1         1 MAT       0.041700
     17 H51         -2.9460    11.0460     2.2800 h1         1 MAT       0.058700
     18 H52         -2.0860     9.6660     2.9960 h1         1 MAT       0.058700
     19 H6           0.2920    13.5090     3.1440 h1         1 MAT       0.044700
     20 H71         -1.8670    14.5350     3.9010 hc         1 MAT       0.036867
     21 H72         -1.4800    14.8790     2.2060 hc         1 MAT       0.036867
     22 H73         -2.7170    13.6720     2.5940 hc         1 MAT       0.036867
     23 H81          0.2790    11.5030     1.6250 hc         1 MAT       0.036867
     24 H82         -1.3800    11.9250     1.1410 hc         1 MAT       0.036867
     25 H83         -0.0570    13.0520     0.8340 hc         1 MAT       0.036867
     26 H91         -1.0040    11.7120     8.6770 h1         1 MAT       0.029700
     27 H92         -2.3410    10.5660     8.4770 h1         1 MAT       0.029700
     28 H93         -0.7060    10.1390     7.9080 h1         1 MAT       0.029700
     29 HO1         -3.6410     7.6120     3.7970 ho         1 MAT       0.454000
     30 HN4         -0.5470    12.4250     4.8800 hn         1 MAT       0.429000
     31 C6          -0.6540    12.9940     2.9260 c3         1 MAT       0.181500
     32 C9          -1.4310    10.9570     8.0050 c3         1 MAT       0.148900
@<TRIPOS>BOND
     1     1     2 1   
     2     1     8 1   
     3     1    11 1   
     4     1    12 1   
     5     2     3 1   
     6     2    13 1   
     7     2    14 1   
     8     3     4 1   
     9     3     9 1   
    10     3    15 1   
    11     4     5 1   
    12     4    10 1   
    13     4    16 1   
    14     5    11 1   
    15     5    17 1   
    16     5    18 1   
    17     6    20 1   
    18     6    21 1   
    19     6    22 1   
    20     6    31 1   
    21     7    23 1   
    22     7    24 1   
    23     7    25 1   
    24     7    31 1   
    25     8    29 1   
    26     9    32 1   
    27    10    30 1   
    28    10    31 1   
    29    19    31 1   
    30    26    32 1   
    31    27    32 1   
    32    28    32 1   
@<TRIPOS>SUBSTRUCTURE
     1 MAT         1 TEMP              0 ****  ****    0 ROOT
