@<TRIPOS>MOLECULE
MAU
  120   122     1     0     0
SMALL
abcg2


@<TRIPOS>ATOM
      1 C2          29.2900   -12.0650    10.0430 c          1 MAU       0.580200
      2 C3          28.2280   -12.8800    10.5390 cc         1 MAU      -0.366400
      3 C4          27.0170   -12.3470    10.8920 cd         1 MAU       0.252100
      4 C5          26.8020   -10.9530    10.7770 cd         1 MAU      -0.381000
      5 C6          27.8170   -10.1890    10.3050 cc         1 MAU       0.013600
      6 C7          28.4690   -14.3600    10.5630 c          1 MAU       0.621500
      7 C8          28.9390   -14.9940    11.8040 ce         1 MAU      -0.163400
      8 C20         33.8860   -11.2480    20.9800 c3         1 MAU       0.203500
      9 C21         34.2960    -9.8880    21.4990 c2         1 MAU      -0.130400
     10 C25         36.1300    -5.3610    20.3550 c3         1 MAU       0.133200
     11 O4          26.0710   -13.1710    11.3420 oh         1 MAU      -0.510100
     12 O7          28.2740   -15.0140     9.5570 o          1 MAU      -0.508100
     13 C9          29.1670   -14.2220    12.8890 cf         1 MAU      -0.127000
     14 C10         29.6290   -14.6590    14.1790 cf         1 MAU      -0.182000
     15 C11         29.8170   -13.7960    15.1970 ce         1 MAU      -0.159000
     16 C12         30.2790   -14.1910    16.5060 ce         1 MAU      -0.187000
     17 C13         30.4510   -13.3310    17.5150 c2         1 MAU      -0.173200
     18 C14         30.8940   -13.7490    18.8740 c5         1 MAU       0.200500
     19 C15         29.8210   -13.6450    19.9550 c5         1 MAU       0.150300
     20 C16         30.6860   -13.5490    21.2180 c5         1 MAU       0.102300
     21 C17         32.0300   -12.9400    20.7220 c5         1 MAU       0.143300
     22 C19         32.4040   -11.5590    21.2620 c3         1 MAU      -0.038700
     23 C22         34.8020    -8.9820    20.6500 ce         1 MAU      -0.177000
     24 C23         35.2060    -7.6250    20.9760 ce         1 MAU      -0.177000
     25 O15         29.0350   -12.5050    19.7390 oh         1 MAU      -0.702000
     26 N1          29.0130   -10.7040     9.9480 n          1 MAU      -0.272000
     27 C40         30.0700    -9.8350     9.4510 c3         1 MAU       0.077300
     28 O2          30.3950   -12.4930     9.7130 o          1 MAU      -0.547000
     29 C41         29.1380   -16.4760    11.7480 c3         1 MAU      -0.044900
     30 O16         30.0000   -12.8430    22.2160 oh         1 MAU      -0.715000
     31 O18         31.9390   -12.9000    19.3050 os         1 MAU      -0.441000
     32 C42         31.5210   -10.4440    20.7110 c3         1 MAU      -0.082100
     33 C44         34.1020    -9.6590    22.9680 c3         1 MAU      -0.055900
     34 N26         35.7810    -4.8930    21.6700 ns         1 MAU      -0.506900
     35 C27         36.6610    -4.7170    22.6740 c          1 MAU       0.619100
     36 O27         37.8630    -4.8870    22.5380 o          1 MAU      -0.588100
     37 C45         36.5880    -5.2350    25.1190 c3         1 MAU      -0.061400
     38 C46         36.2120    -6.6980    24.9230 c3         1 MAU      -0.094100
     39 C28         36.0360    -4.3370    24.0120 c3         1 MAU      -0.115700
     40 C29         36.2540    -2.8380    24.2910 c6         1 MAU       0.418000
     41 O29         37.6240    -2.6050    24.4170 oh         1 MAU      -0.708000
     42 C30         35.5140    -2.3650    25.5580 c6         1 MAU       0.129300
     43 O30         34.2340    -2.9310    25.5740 oh         1 MAU      -0.706000
     44 C31         35.4700    -0.8330    25.5990 c6         1 MAU       0.135300
     45 O31         34.7140    -0.5100    26.7410 oh         1 MAU      -0.729000
     46 C32         34.9490    -0.1780    24.3010 c6         1 MAU      -0.100000
     47 C47         33.4620    -0.4270    24.0460 c3         1 MAU      -0.084100
     48 C48         35.1930     1.3310    24.3940 c3         1 MAU      -0.084100
     49 C33         35.8130    -0.7750    23.1610 c6         1 MAU       0.221500
     50 O34         35.7440    -2.1830    23.1610 os         1 MAU      -0.460000
     51 C35         35.4120    -0.2800    21.8100 c2         1 MAU      -0.218200
     52 C36         34.8780    -1.0090    20.8260 ce         1 MAU      -0.151000
     53 C37         34.5010    -0.4380    19.5450 ce         1 MAU      -0.197000
     54 C38         33.8980    -1.1020    18.5520 c2         1 MAU      -0.196200
     55 C39         33.5090    -2.5500    18.5820 c3         1 MAU      -0.061900
     56 HC5         25.8630   -10.4940    11.0520 ha         1 MAU       0.203000
     57 HC6         27.7060    -9.1200    10.1950 h4         1 MAU       0.200000
     58 HC02        34.0420   -11.2640    19.8900 h1         1 MAU       0.052700
     59 HC42        35.8710    -7.1030    19.0560 ha         1 MAU       0.173000
     60 H251        35.6700    -4.7110    19.6050 h1         1 MAU       0.064700
     61 H252        37.2060    -5.2490    20.2160 h1         1 MAU       0.064700
     62 HO4         25.2660   -12.6880    11.5660 ho         1 MAU       0.475000
     63 HC9         28.9900   -13.1540    12.7980 ha         1 MAU       0.175000
     64 HC01        29.8310   -15.7120    14.3420 ha         1 MAU       0.178000
     65 HC11        29.6150   -12.7400    15.0400 ha         1 MAU       0.172000
     66 HC21        30.4900   -15.2460    16.6590 ha         1 MAU       0.169000
     67 HC31        30.2470   -12.2750    17.3660 ha         1 MAU       0.195000
     68 HC41        31.2310   -14.7970    18.8430 h1         1 MAU       0.041700
     69 HC51        29.2060   -14.5530    19.9670 h1         1 MAU       0.048700
     70 HC61        30.8920   -14.5720    21.5540 h1         1 MAU       0.038700
     71 HC71        32.8260   -13.6400    20.9980 h1         1 MAU       0.061700
     72 HC91        32.2830   -11.6000    22.3500 hc         1 MAU       0.054700
     73 HC22        34.9120    -9.2700    19.6070 ha         1 MAU       0.170000
     74 HC32        35.0610    -7.2810    21.9950 ha         1 MAU       0.174000
     75 HO51        28.5520   -12.3190    20.5510 ho         1 MAU       0.521000
     76 H401        29.6910    -8.8190     9.3910 h1         1 MAU       0.056700
     77 H402        30.3910   -10.1490     8.4610 h1         1 MAU       0.056700
     78 H403        30.9280    -9.8510    10.1200 h1         1 MAU       0.056700
     79 H411        29.4690   -16.8880    12.6980 hc         1 MAU       0.047033
     80 H412        29.8810   -16.7430    10.9950 hc         1 MAU       0.047033
     81 H413        28.2130   -16.9850    11.4720 hc         1 MAU       0.047033
     82 HO61        30.3840   -13.0580    23.0710 ho         1 MAU       0.517000
     83 H421        30.4720   -10.6330    20.9160 hc         1 MAU       0.043367
     84 H422        31.6390   -10.3420    19.6320 hc         1 MAU       0.043367
     85 H423        31.7790    -9.4840    21.1570 hc         1 MAU       0.043367
     86 H431        36.4890   -13.1270    21.6550 h1         1 MAU       0.030700
     87 H432        36.5460   -11.3690    21.4410 h1         1 MAU       0.030700
     88 H433        36.0930   -12.4100    20.0830 h1         1 MAU       0.030700
     89 H441        34.6890    -8.8270    23.3490 hc         1 MAU       0.043033
     90 H442        34.3820   -10.5450    23.5390 hc         1 MAU       0.043033
     91 H443        33.0550    -9.4480    23.2040 hc         1 MAU       0.043033
     92 HN62        34.8060    -4.7220    21.8570 hn         1 MAU       0.313500
     93 H451        36.1920    -4.9020    26.0800 hc         1 MAU       0.054700
     94 H452        37.6720    -5.1320    25.1750 hc         1 MAU       0.054700
     95 H461        36.5830    -7.3070    25.7480 hc         1 MAU       0.036033
     96 H462        36.6330    -7.1110    24.0040 hc         1 MAU       0.036033
     97 H463        35.1290    -6.8250    24.8820 hc         1 MAU       0.036033
     98 HC82        34.9570    -4.5010    23.9530 hc         1 MAU       0.079700
     99 HO92        37.8120    -1.9640    25.1100 ho         1 MAU       0.505000
    100 H30         36.0910    -2.7010    26.4330 h1         1 MAU       0.048700
    101 HO3         33.7300    -2.5100    26.2790 ho         1 MAU       0.528000
    102 HC13        36.5050    -0.4770    25.7330 h1         1 MAU       0.025700
    103 HO13        34.7420     0.4400    26.8870 ho         1 MAU       0.517000
    104 H471        33.1050     0.2260    23.2490 hc         1 MAU       0.041033
    105 H472        32.8720    -0.2030    24.9340 hc         1 MAU       0.041033
    106 H473        33.2540    -1.4520    23.7500 hc         1 MAU       0.041033
    107 H481        34.9150     1.8370    23.4700 hc         1 MAU       0.041033
    108 H482        36.2390     1.5650    24.6040 hc         1 MAU       0.041033
    109 H483        34.5840     1.7820    25.1810 hc         1 MAU       0.041033
    110 HC33        36.8520    -0.4450    23.3260 h1         1 MAU       0.046700
    111 HC53        35.5850     0.7790    21.6420 ha         1 MAU       0.171000
    112 HC63        34.7070    -2.0700    20.9770 ha         1 MAU       0.187000
    113 HC73        34.7240     0.6150    19.3990 ha         1 MAU       0.168000
    114 HC83        33.6600    -0.5510    17.6490 ha         1 MAU       0.169000
    115 H391        33.0910    -2.8650    17.6280 hc         1 MAU       0.040367
    116 H392        32.7610    -2.7570    19.3510 hc         1 MAU       0.040367
    117 H393        34.3630    -3.1980    18.7890 hc         1 MAU       0.040367
    118 O20         34.6630   -12.2610    21.5870 os         1 MAU      -0.465000
    119 C43         36.0050   -12.2810    21.1690 c3         1 MAU       0.146900
    120 C24         35.7240    -6.7780    20.0830 c2         1 MAU      -0.233200
@<TRIPOS>BOND
     1     1     2 1   
     2     1    26 1   
     3     1    28 2   
     4     2     3 2   
     5     2     6 1   
     6     3     4 1   
     7     3    11 1   
     8     4     5 2   
     9     4    56 1   
    10     5    26 1   
    11     5    57 1   
    12     6     7 1   
    13     6    12 2   
    14     7    13 2   
    15     7    29 1   
    16     8     9 1   
    17     8    22 1   
    18     8    58 1   
    19     8   118 1   
    20     9    23 2   
    21     9    33 1   
    22    10    34 1   
    23    10    60 1   
    24    10    61 1   
    25    10   120 1   
    26    11    62 1   
    27    13    14 1   
    28    13    63 1   
    29    14    15 2   
    30    14    64 1   
    31    15    16 1   
    32    15    65 1   
    33    16    17 2   
    34    16    66 1   
    35    17    18 1   
    36    17    67 1   
    37    18    19 1   
    38    18    31 1   
    39    18    68 1   
    40    19    20 1   
    41    19    25 1   
    42    19    69 1   
    43    20    21 1   
    44    20    30 1   
    45    20    70 1   
    46    21    22 1   
    47    21    31 1   
    48    21    71 1   
    49    22    32 1   
    50    22    72 1   
    51    23    24 1   
    52    23    73 1   
    53    24    74 1   
    54    24   120 2   
    55    25    75 1   
    56    26    27 1   
    57    27    76 1   
    58    27    77 1   
    59    27    78 1   
    60    29    79 1   
    61    29    80 1   
    62    29    81 1   
    63    30    82 1   
    64    32    83 1   
    65    32    84 1   
    66    32    85 1   
    67    33    89 1   
    68    33    90 1   
    69    33    91 1   
    70    34    35 1   
    71    34    92 1   
    72    35    36 2   
    73    35    39 1   
    74    37    38 1   
    75    37    39 1   
    76    37    93 1   
    77    37    94 1   
    78    38    95 1   
    79    38    96 1   
    80    38    97 1   
    81    39    40 1   
    82    39    98 1   
    83    40    41 1   
    84    40    42 1   
    85    40    50 1   
    86    41    99 1   
    87    42    43 1   
    88    42    44 1   
    89    42   100 1   
    90    43   101 1   
    91    44    45 1   
    92    44    46 1   
    93    44   102 1   
    94    45   103 1   
    95    46    47 1   
    96    46    48 1   
    97    46    49 1   
    98    47   104 1   
    99    47   105 1   
   100    47   106 1   
   101    48   107 1   
   102    48   108 1   
   103    48   109 1   
   104    49    50 1   
   105    49    51 1   
   106    49   110 1   
   107    51    52 2   
   108    51   111 1   
   109    52    53 1   
   110    52   112 1   
   111    53    54 2   
   112    53   113 1   
   113    54    55 1   
   114    54   114 1   
   115    55   115 1   
   116    55   116 1   
   117    55   117 1   
   118    59   120 1   
   119    86   119 1   
   120    87   119 1   
   121    88   119 1   
   122   118   119 1   
@<TRIPOS>SUBSTRUCTURE
     1 MAU         1 TEMP              0 ****  ****    0 ROOT
