@<TRIPOS>MOLECULE
MAU
  120   122     1     0     0
SMALL
No Charge or Current Charge


@<TRIPOS>ATOM
      1 C2          28.2940    -9.9120    10.0830 c          1 MAU       0.580200
      2 C3          27.8430   -11.1290    10.7680 cc         1 MAU      -0.366400
      3 C4          26.7040   -11.1610    11.5380 cd         1 MAU       0.252100
      4 C5          25.9830    -9.9480    11.7520 cd         1 MAU      -0.381000
      5 C6          26.4120    -8.7810    11.1610 cc         1 MAU       0.013600
      6 C7          28.5510   -12.3790    10.4650 c          1 MAU       0.621500
      7 C8          29.2190   -13.1010    11.6260 ce         1 MAU      -0.163400
      8 C20         34.8000   -11.7820    21.2920 c3         1 MAU       0.203500
      9 C21         35.4950   -10.7560    22.2010 c2         1 MAU      -0.130400
     10 C25         37.7460    -6.2580    22.7190 c3         1 MAU       0.133200
     11 O4          26.2320   -12.2920    12.0820 oh         1 MAU      -0.510100
     12 O7          28.6690   -12.7700     9.3100 o          1 MAU      -0.508100
     13 C9          29.3150   -12.5550    12.8820 cf         1 MAU      -0.127000
     14 C10         29.9450   -13.1670    14.0500 cf         1 MAU      -0.182000
     15 C11         30.0230   -12.5780    15.2730 ce         1 MAU      -0.159000
     16 C12         30.6520   -13.1870    16.4490 ce         1 MAU      -0.187000
     17 C13         30.7180   -12.5690    17.6510 c2         1 MAU      -0.173200
     18 C14         31.3960   -13.3440    18.7770 c5         1 MAU       0.200500
     19 C15         30.3850   -13.7310    19.9080 c5         1 MAU       0.150300
     20 C16         31.3420   -13.8570    21.1470 c5         1 MAU       0.102300
     21 C17         32.6530   -13.0930    20.6820 c5         1 MAU       0.143300
     22 C19         33.3090   -12.0600    21.6590 c3         1 MAU      -0.038700
     23 C22         35.9620    -9.5790    21.7160 ce         1 MAU      -0.177000
     24 C23         36.6060    -8.5220    22.5100 ce         1 MAU      -0.177000
     25 O15         29.4200   -12.7190    20.2160 oh         1 MAU      -0.702000
     26 N1          27.5310    -8.7540    10.3360 n          1 MAU      -0.272000
     27 C40         27.9550    -7.4880     9.6930 c3         1 MAU       0.077300
     28 O2          29.2830    -9.8840     9.3620 o          1 MAU      -0.547000
     29 C41         29.8090   -14.4820    11.3280 c3         1 MAU      -0.044900
     30 O16         30.6920   -13.3370    22.3300 oh         1 MAU      -0.715000
     31 O18         32.2970   -12.4470    19.4400 os         1 MAU      -0.441000
     32 C42         32.5130   -10.7260    21.7660 c3         1 MAU      -0.082100
     33 C44         35.5830   -11.1660    23.6690 c3         1 MAU      -0.055900
     34 N26         36.7290    -5.5300    23.4660 ns         1 MAU      -0.506900
     35 C27         36.9300    -4.3080    24.0650 c          1 MAU       0.619100
     36 O27         38.0140    -3.7360    24.0310 o          1 MAU      -0.588100
     37 C45         35.9390    -3.6090    26.3110 c3         1 MAU      -0.061400
     38 C46         36.2400    -4.9690    26.9780 c3         1 MAU      -0.094100
     39 C28         35.7130    -3.6960    24.7700 c3         1 MAU      -0.115700
     40 C29         35.3330    -2.3450    24.0850 c6         1 MAU       0.418000
     41 O29         36.4210    -1.4370    24.2450 oh         1 MAU      -0.708000
     42 C30         33.9840    -1.7260    24.6290 c6         1 MAU       0.129300
     43 O30         32.8800    -2.6480    24.7160 oh         1 MAU      -0.706000
     44 C31         33.5200    -0.5510    23.7110 c6         1 MAU       0.135300
     45 O31         32.2110    -0.1270    24.1460 oh         1 MAU      -0.729000
     46 C32         33.5220    -0.9010    22.1700 c6         1 MAU      -0.100000
     47 C47         32.3740    -1.8900    21.7500 c3         1 MAU      -0.084100
     48 C48         33.2980     0.4110    21.3460 c3         1 MAU      -0.084100
     49 C33         34.9270    -1.5060    21.8230 c6         1 MAU       0.221500
     50 O34         35.2230    -2.6350    22.6800 os         1 MAU      -0.460000
     51 C35         35.0710    -1.9320    20.3630 c2         1 MAU      -0.218200
     52 C36         34.8340    -3.1810    19.9000 ce         1 MAU      -0.151000
     53 C37         34.9890    -3.5580    18.4890 ce         1 MAU      -0.197000
     54 C38         34.7530    -4.7930    17.9950 c2         1 MAU      -0.196200
     55 C39         34.2900    -6.0070    18.7760 c3         1 MAU      -0.061900
     56 HC5         25.0870    -9.9310    12.3680 ha         1 MAU       0.203000
     57 HC6         25.9290    -7.8130    11.2650 h4         1 MAU       0.200000
     58 HC02        34.8140   -11.4060    20.2600 h1         1 MAU       0.052700
     59 HC42        37.0240    -7.2160    20.8880 ha         1 MAU       0.173000
     60 H251        38.2450    -5.5720    22.0200 h1         1 MAU       0.064700
     61 H252        38.4980    -6.6490    23.4180 h1         1 MAU       0.064700
     62 HO4         25.4150   -12.0510    12.5640 ho         1 MAU       0.475000
     63 HC9         28.9020   -11.5590    13.0540 ha         1 MAU       0.175000
     64 HC01        30.3820   -14.1610    13.9330 ha         1 MAU       0.178000
     65 HC11        29.5920   -11.5830    15.4040 ha         1 MAU       0.172000
     66 HC21        31.0720   -14.1870    16.3130 ha         1 MAU       0.169000
     67 HC31        30.3050   -11.5740    17.8180 ha         1 MAU       0.195000
     68 HC41        31.9610   -14.2180    18.4220 h1         1 MAU       0.041700
     69 HC51        29.8850   -14.6840    19.6850 h1         1 MAU       0.048700
     70 HC61        31.5900   -14.9160    21.3070 h1         1 MAU       0.038700
     71 HC71        33.4030   -13.8600    20.4440 h1         1 MAU       0.061700
     72 HC91        33.3100   -12.5110    22.6580 hc         1 MAU       0.054700
     73 HC22        35.8540    -9.3660    20.6510 ha         1 MAU       0.170000
     74 HC32        36.6810    -8.6710    23.5890 ha         1 MAU       0.174000
     75 HO51        29.6130   -12.5960    21.1860 ho         1 MAU       0.521000
     76 H401        27.2750    -6.6680     9.9550 h1         1 MAU       0.056700
     77 H402        27.9560    -7.6090     8.6020 h1         1 MAU       0.056700
     78 H403        28.9670    -7.2250    10.0260 h1         1 MAU       0.056700
     79 H411        29.4220   -15.2340    12.0260 hc         1 MAU       0.047033
     80 H412        30.9020   -14.4710    11.4240 hc         1 MAU       0.047033
     81 H413        29.5770   -14.8480    10.3210 hc         1 MAU       0.047033
     82 HO61        31.1650   -13.7060    23.1140 ho         1 MAU       0.517000
     83 H421        31.4490   -10.9000    21.9550 hc         1 MAU       0.043367
     84 H422        32.5970   -10.1470    20.8380 hc         1 MAU       0.043367
     85 H423        32.8910   -10.1040    22.5860 hc         1 MAU       0.043367
     86 H431        37.3060   -14.0030    20.8600 h1         1 MAU       0.030700
     87 H432        37.5010   -12.3140    21.3690 h1         1 MAU       0.030700
     88 H433        36.8370   -12.6910    19.7590 h1         1 MAU       0.030700
     89 H441        36.5620   -10.9180    24.0950 hc         1 MAU       0.043033
     90 H442        35.4450   -12.2430    23.8170 hc         1 MAU       0.043033
     91 H443        34.8190   -10.6530    24.2640 hc         1 MAU       0.043033
     92 HN62        35.8010    -5.9310    23.5230 hn         1 MAU       0.313500
     93 H451        35.0450    -3.1880    26.7880 hc         1 MAU       0.054700
     94 H452        36.7640    -2.9190    26.5300 hc         1 MAU       0.054700
     95 H461        36.3300    -4.8470    28.0640 hc         1 MAU       0.036033
     96 H462        37.1810    -5.3930    26.6070 hc         1 MAU       0.036033
     97 H463        35.4330    -5.6860    26.7810 hc         1 MAU       0.036033
     98 HC82        34.8760    -4.3880    24.6190 hc         1 MAU       0.079700
     99 HO92        37.2190    -1.9850    24.0530 ho         1 MAU       0.505000
    100 H30         34.1830    -1.3080    25.6270 h1         1 MAU       0.048700
    101 HO3         32.1170    -2.0420    24.5310 ho         1 MAU       0.528000
    102 HC13        34.2350     0.2710    23.8660 h1         1 MAU       0.025700
    103 HO13        32.0560     0.7640    23.7550 ho         1 MAU       0.517000
    104 H471        32.3160    -1.9990    20.6600 hc         1 MAU       0.041033
    105 H472        31.3880    -1.5430    22.0810 hc         1 MAU       0.041033
    106 H473        32.5270    -2.8970    22.1550 hc         1 MAU       0.041033
    107 H481        33.3320     0.2260    20.2650 hc         1 MAU       0.041033
    108 H482        34.0670     1.1610    21.5710 hc         1 MAU       0.041033
    109 H483        32.3230     0.8660    21.5580 hc         1 MAU       0.041033
    110 HC33        35.6860    -0.7290    21.9980 h1         1 MAU       0.046700
    111 HC53        35.3970    -1.1450    19.6830 ha         1 MAU       0.171000
    112 HC63        34.5100    -3.9620    20.5910 ha         1 MAU       0.187000
    113 HC73        35.3200    -2.7670    17.8110 ha         1 MAU       0.168000
    114 HC83        34.8970    -4.9830    16.9290 ha         1 MAU       0.169000
    115 H391        34.1960    -6.8840    18.1230 hc         1 MAU       0.040367
    116 H392        33.3110    -5.8300    19.2370 hc         1 MAU       0.040367
    117 H393        34.9990    -6.2610    19.5730 hc         1 MAU       0.040367
    118 O20         35.5240   -13.0310    21.3600 os         1 MAU      -0.465000
    119 C43         36.8550   -13.0040    20.8110 c3         1 MAU       0.146900
    120 C24         37.0890    -7.3860    21.9630 c2         1 MAU      -0.233200
@<TRIPOS>BOND
     1     1     2 1   
     2     1    26 1   
     3     1    28 2   
     4     2     3 2   
     5     2     6 1   
     6     3     4 1   
     7     3    11 1   
     8     4     5 2   
     9     4    56 1   
    10     5    26 1   
    11     5    57 1   
    12     6     7 1   
    13     6    12 2   
    14     7    13 2   
    15     7    29 1   
    16     8     9 1   
    17     8    22 1   
    18     8    58 1   
    19     8   118 1   
    20     9    23 2   
    21     9    33 1   
    22    10    34 1   
    23    10    60 1   
    24    10    61 1   
    25    10   120 1   
    26    11    62 1   
    27    13    14 1   
    28    13    63 1   
    29    14    15 2   
    30    14    64 1   
    31    15    16 1   
    32    15    65 1   
    33    16    17 2   
    34    16    66 1   
    35    17    18 1   
    36    17    67 1   
    37    18    19 1   
    38    18    31 1   
    39    18    68 1   
    40    19    20 1   
    41    19    25 1   
    42    19    69 1   
    43    20    21 1   
    44    20    30 1   
    45    20    70 1   
    46    21    22 1   
    47    21    31 1   
    48    21    71 1   
    49    22    32 1   
    50    22    72 1   
    51    23    24 1   
    52    23    73 1   
    53    24    74 1   
    54    24   120 2   
    55    25    75 1   
    56    26    27 1   
    57    27    76 1   
    58    27    77 1   
    59    27    78 1   
    60    29    79 1   
    61    29    80 1   
    62    29    81 1   
    63    30    82 1   
    64    32    83 1   
    65    32    84 1   
    66    32    85 1   
    67    33    89 1   
    68    33    90 1   
    69    33    91 1   
    70    34    35 1   
    71    34    92 1   
    72    35    36 2   
    73    35    39 1   
    74    37    38 1   
    75    37    39 1   
    76    37    93 1   
    77    37    94 1   
    78    38    95 1   
    79    38    96 1   
    80    38    97 1   
    81    39    40 1   
    82    39    98 1   
    83    40    41 1   
    84    40    42 1   
    85    40    50 1   
    86    41    99 1   
    87    42    43 1   
    88    42    44 1   
    89    42   100 1   
    90    43   101 1   
    91    44    45 1   
    92    44    46 1   
    93    44   102 1   
    94    45   103 1   
    95    46    47 1   
    96    46    48 1   
    97    46    49 1   
    98    47   104 1   
    99    47   105 1   
   100    47   106 1   
   101    48   107 1   
   102    48   108 1   
   103    48   109 1   
   104    49    50 1   
   105    49    51 1   
   106    49   110 1   
   107    51    52 2   
   108    51   111 1   
   109    52    53 1   
   110    52   112 1   
   111    53    54 2   
   112    53   113 1   
   113    54    55 1   
   114    54   114 1   
   115    55   115 1   
   116    55   116 1   
   117    55   117 1   
   118    59   120 1   
   119    86   119 1   
   120    87   119 1   
   121    88   119 1   
   122   118   119 1   
@<TRIPOS>SUBSTRUCTURE
     1 MAU         1 TEMP              0 ****  ****    0 ROOT
