@<TRIPOS>MOLECULE
MAV
   22    22     1     0     0
SMALL
bcc


@<TRIPOS>ATOM
      1 C1          15.8060    44.8440    50.0780 c6         1 MAV       0.343900
      2 O1          16.3200    43.7470    50.7850 oh         1 MAV      -0.622800
      3 C2          14.3570    45.1400    50.4830 c6         1 MAV       0.089100
      4 O2          14.0280    46.3950    49.9410 oh         1 MAV      -0.588800
      5 C3          13.4330    44.0380    49.9770 c6         1 MAV       0.104100
      6 O3          12.1110    44.4180    50.2900 oh         1 MAV      -0.635800
      7 C4          13.6410    43.8210    48.4880 c6         1 MAV       0.110100
      8 O4          12.8310    42.7550    48.0680 oh         1 MAV      -0.679800
      9 C5          15.1270    43.5280    48.2290 c6         1 MAV      -0.036900
     10 O5          15.9320    44.5820    48.7230 os         1 MAV      -0.339600
     11 C6          15.3980    43.3180    46.7250 c          1 MAV       0.943600
     12 O6A         16.3730    43.8580    46.2020 o          1 MAV      -0.808300
     13 O6B         14.5600    42.5610    46.1610 o          1 MAV      -0.808300
     14 H1          16.4090    45.7440    50.2610 h2         1 MAV       0.059700
     15 HO1         16.2520    43.9190    51.7300 ho         1 MAV       0.397000
     16 H2          14.3060    45.1720    51.5830 h1         1 MAV       0.012700
     17 HO2         13.0770    46.5180    50.0380 ho         1 MAV       0.414000
     18 H3          13.7020    43.1050    50.4930 h1         1 MAV       0.044700
     19 HO3         11.5090    43.8250    49.8280 ho         1 MAV       0.426000
     20 H4          13.3780    44.7510    47.9570 h1         1 MAV       0.046700
     21 HO4         13.2640    42.4720    47.2250 ho         1 MAV       0.483000
     22 H5          15.3750    42.5810    48.7330 h1         1 MAV       0.045700
@<TRIPOS>BOND
     1     1     2 1   
     2     1     3 1   
     3     1    10 1   
     4     1    14 1   
     5     2    15 1   
     6     3     4 1   
     7     3     5 1   
     8     3    16 1   
     9     4    17 1   
    10     5     6 1   
    11     5     7 1   
    12     5    18 1   
    13     6    19 1   
    14     7     8 1   
    15     7     9 1   
    16     7    20 1   
    17     8    21 1   
    18     9    10 1   
    19     9    11 1   
    20     9    22 1   
    21    11    12 1   
    22    11    13 1   
@<TRIPOS>SUBSTRUCTURE
     1 MAV         1 TEMP              0 ****  ****    0 ROOT
