@<TRIPOS>MOLECULE
MAV
   22    22     1     0     0
SMALL
No Charge or Current Charge


@<TRIPOS>ATOM
      1 C1          15.8700    44.7650    50.1270 c6         1 MAV       0.390300
      2 O1          16.2950    43.5430    50.7450 oh         1 MAV      -0.745000
      3 C2          14.4010    45.1610    50.5400 c6         1 MAV       0.112300
      4 O2          14.0110    46.4680    50.0730 oh         1 MAV      -0.711000
      5 C3          13.3940    44.1260    49.9550 c6         1 MAV       0.127300
      6 O3          12.0380    44.5580    50.1880 oh         1 MAV      -0.758000
      7 C4          13.6080    43.9210    48.4190 c6         1 MAV       0.133300
      8 O4          12.6900    42.9210    47.9270 oh         1 MAV      -0.802000
      9 C5          15.0920    43.5670    48.1150 c6         1 MAV      -0.013700
     10 O5          15.9660    44.5930    48.6940 os         1 MAV      -0.386000
     11 C6          15.3080    43.3750    46.5760 c          1 MAV       0.733000
     12 O6A         15.8450    44.2980    45.9730 o          1 MAV      -0.703000
     13 O6B         15.5200    42.2220    46.2190 o          1 MAV      -0.703000
     14 H1          16.5480    45.5790    50.4280 h2         1 MAV       0.059700
     15 HO1         16.3940    43.7500    51.7010 ho         1 MAV       0.496000
     16 H2          14.3290    45.1350    51.6370 h1         1 MAV       0.012700
     17 HO2         13.0260    46.3930    50.0180 ho         1 MAV       0.513000
     18 H3          13.5680    43.1620    50.4570 h1         1 MAV       0.044700
     19 HO3         11.5040    44.0450    49.5310 ho         1 MAV       0.525000
     20 H4          13.3960    44.8770    47.9170 h1         1 MAV       0.046700
     21 HO4         13.0540    42.0330    48.1720 ho         1 MAV       0.582000
     22 H5          15.3320    42.6020    48.5850 h1         1 MAV       0.045700
@<TRIPOS>BOND
     1     1     2 1   
     2     1     3 1   
     3     1    10 1   
     4     1    14 1   
     5     2    15 1   
     6     3     4 1   
     7     3     5 1   
     8     3    16 1   
     9     4    17 1   
    10     5     6 1   
    11     5     7 1   
    12     5    18 1   
    13     6    19 1   
    14     7     8 1   
    15     7     9 1   
    16     7    20 1   
    17     8    21 1   
    18     9    10 1   
    19     9    11 1   
    20     9    22 1   
    21    11    12 1   
    22    11    13 1   
@<TRIPOS>SUBSTRUCTURE
     1 MAV         1 TEMP              0 ****  ****    0 ROOT
