@<TRIPOS>MOLECULE
MAW
   19    19     1     0     0
SMALL
No Charge or Current Charge


@<TRIPOS>ATOM
      1 O1          -0.6780    16.3460     6.1910 oh         1 MAW      -0.696000
      2 C1           0.2920    16.5350     5.1640 c6         1 MAW       0.385300
      3 C2          -0.3390    17.2770     3.9420 c6         1 MAW       0.155300
      4 O2          -0.8880    18.5620     4.3040 oh         1 MAW      -0.632000
      5 C3           0.7960    17.5000     2.9030 c6         1 MAW       0.190500
      6 O3           0.3920    18.4570     1.9230 oh         1 MAW      -0.751000
      7 C4           2.0500    18.0220     3.5640 c2         1 MAW      -0.457200
      8 C5           2.2810    17.9250     4.9050 ce         1 MAW       0.078900
      9 O5           1.3630    17.2980     5.7480 os         1 MAW      -0.339100
     10 C6           3.5510    18.4750     5.5830 c          1 MAW       0.725200
     11 O6A          4.3990    19.0310     4.8920 o          1 MAW      -0.694500
     12 O6B          3.6850    18.3410     6.7950 o          1 MAW      -0.694500
     13 H1           0.6820    15.5600     4.8350 h2         1 MAW       0.011700
     14 H2          -1.1160    16.6440     3.4910 h1         1 MAW       0.026700
     15 HO2         -0.5960    19.1240     3.5470 ho         1 MAW       0.452000
     16 H3           1.0260    16.5380     2.4210 h1         1 MAW       0.017700
     17 HO3          1.0910    18.4510     1.2290 ho         1 MAW       0.512000
     18 H4           2.7830    18.5030     2.9150 ha         1 MAW       0.204000
     19 HO1         -1.0680    17.2430     6.2930 ho         1 MAW       0.506000
@<TRIPOS>BOND
     1     1     2 1   
     2     1    19 1   
     3     2     3 1   
     4     2     9 1   
     5     2    13 1   
     6     3     4 1   
     7     3     5 1   
     8     3    14 1   
     9     4    15 1   
    10     5     6 1   
    11     5     7 1   
    12     5    16 1   
    13     6    17 1   
    14     7     8 2   
    15     7    18 1   
    16     8     9 1   
    17     8    10 1   
    18    10    11 1   
    19    10    12 1   
@<TRIPOS>SUBSTRUCTURE
     1 MAW         1 TEMP              0 ****  ****    0 ROOT
