@<TRIPOS>MOLECULE
MAW
   19    19     1     0     0
SMALL
bcc


@<TRIPOS>ATOM
      1 O1          -0.7990    16.6950     6.0960 oh         1 MAW      -0.573800
      2 C1           0.2210    16.7930     5.1770 c6         1 MAW       0.338900
      3 C2          -0.3080    17.3760     3.8790 c6         1 MAW       0.132100
      4 O2          -0.8020    18.6640     4.1300 oh         1 MAW      -0.569800
      5 C3           0.8530    17.3990     2.8840 c6         1 MAW       0.167300
      6 O3           0.4310    18.1900     1.7900 oh         1 MAW      -0.628800
      7 C4           2.0790    17.9410     3.5540 c2         1 MAW      -0.407200
      8 C5           2.2000    18.0340     4.8800 ce         1 MAW       0.078900
      9 O5           1.2340    17.6170     5.7310 os         1 MAW      -0.315900
     10 C6           3.4340    18.6160     5.5730 c          1 MAW       0.935800
     11 O6A          4.3150    19.0640     4.8180 o          1 MAW      -0.799800
     12 O6B          3.4320    18.5820     6.8140 o          1 MAW      -0.799800
     13 H1           0.6680    15.8100     4.9550 h2         1 MAW       0.011700
     14 H2          -1.0960    16.7090     3.4980 h1         1 MAW       0.026700
     15 HO2         -0.7740    19.1470     3.2950 ho         1 MAW       0.413000
     16 H3           1.0350    16.3690     2.5470 h1         1 MAW       0.017700
     17 HO3          1.2000    18.4430     1.2700 ho         1 MAW       0.413000
     18 H4           2.9080    18.2670     2.9400 ha         1 MAW       0.154000
     19 HO1         -0.5270    16.1150     6.8160 ho         1 MAW       0.407000
@<TRIPOS>BOND
     1     1     2 1   
     2     1    19 1   
     3     2     3 1   
     4     2     9 1   
     5     2    13 1   
     6     3     4 1   
     7     3     5 1   
     8     3    14 1   
     9     4    15 1   
    10     5     6 1   
    11     5     7 1   
    12     5    16 1   
    13     6    17 1   
    14     7     8 2   
    15     7    18 1   
    16     8     9 1   
    17     8    10 1   
    18    10    11 1   
    19    10    12 1   
@<TRIPOS>SUBSTRUCTURE
     1 MAW         1 TEMP              0 ****  ****    0 ROOT
