@<TRIPOS>MOLECULE
MAX
   48    50     1     0     0
SMALL
No Charge or Current Charge


@<TRIPOS>ATOM
      1 C1          -3.8820     0.7660     0.2800 ca         1 MAX      -0.151000
      2 C2          -5.2830     0.6360     0.4180 ca         1 MAX       0.051100
      3 C3          -6.0210    -0.0190    -0.5890 ca         1 MAX       0.124100
      4 C4          -5.3720    -0.5390    -1.7190 ca         1 MAX      -0.122000
      5 C5          -3.9790    -0.4090    -1.8520 ca         1 MAX      -0.101000
      6 C6          -3.2290     0.2440    -0.8550 ca         1 MAX      -0.094300
      7 C7          -1.7170     0.3780    -0.9920 c3         1 MAX      -0.014100
      8 C8          -0.9390    -0.5880    -0.0650 c5         1 MAX      -0.099700
      9 C9          -1.2180    -2.0980    -0.3250 c5         1 MAX       0.158600
     10 O10         -0.1180    -2.7870     0.3150 os         1 MAX      -0.429100
     11 C11          0.9510    -1.9440     0.4330 c          1 MAX       0.655100
     12 C12          0.5990    -0.6210    -0.2660 c5         1 MAX      -0.177700
     13 O13          1.9230    -2.1980     1.1290 o          1 MAX      -0.481000
     14 C14          1.3830     0.6160     0.2440 c3         1 MAX      -0.001100
     15 C15          2.8420     0.6380    -0.1980 ca         1 MAX      -0.086300
     16 C16          3.1650     0.9010    -1.5430 ca         1 MAX      -0.104000
     17 C17          4.5070     0.9230    -1.9590 ca         1 MAX      -0.123000
     18 C18          5.5330     0.6810    -1.0330 ca         1 MAX       0.124100
     19 C19          5.2260     0.4170     0.3180 ca         1 MAX       0.050100
     20 C20          3.8750     0.3980     0.7320 ca         1 MAX      -0.125000
     21 O21          6.2750     0.1830     1.1920 os         1 MAX      -0.368100
     22 C22          6.0640    -0.1080     2.5860 c3         1 MAX       0.155900
     23 O23          6.8360     0.7010    -1.4390 oh         1 MAX      -0.535100
     24 O24         -7.3740    -0.1480    -0.4610 oh         1 MAX      -0.532100
     25 O25         -5.9700     1.1310     1.5150 os         1 MAX      -0.366100
     26 C26         -5.3040     1.8110     2.5960 c3         1 MAX       0.156900
     27 H1          -3.2880     1.2650     1.0400 ha         1 MAX       0.115000
     28 H4          -5.9480    -1.0440    -2.4910 ha         1 MAX       0.133000
     29 H5          -3.4850    -0.8180    -2.7310 ha         1 MAX       0.116000
     30 H7C1        -1.4200     0.2090    -2.0350 hc         1 MAX       0.053700
     31 H7C2        -1.4280     1.4120    -0.7700 hc         1 MAX       0.053700
     32 H8          -1.1950    -0.3300     0.9700 hc         1 MAX       0.066700
     33 H9C1        -2.1750    -2.4380     0.0940 h1         1 MAX       0.066700
     34 H9C2        -1.2040    -2.3310    -1.3990 h1         1 MAX       0.066700
     35 H12          0.7920    -0.7570    -1.3360 hc         1 MAX       0.086700
     36 H141         0.9010     1.5290    -0.1260 hc         1 MAX       0.049200
     37 H142         1.3100     0.6750     1.3380 hc         1 MAX       0.049200
     38 H16          2.3750     1.0910    -2.2670 ha         1 MAX       0.110000
     39 H17          4.7510     1.1260    -2.9990 ha         1 MAX       0.129000
     40 H20          3.6110     0.1950     1.7660 ha         1 MAX       0.119000
     41 H221         5.5470     0.7220     3.0850 h1         1 MAX       0.042700
     42 H222         5.4650    -1.0200     2.7080 h1         1 MAX       0.042700
     43 H223         7.0240    -0.2630     3.0930 h1         1 MAX       0.042700
     44 H23          7.3770     0.5090    -0.6410 ho         1 MAX       0.481000
     45 H24         -7.6130     0.2810     0.3910 ho         1 MAX       0.482000
     46 H261        -4.7920     2.7120     2.2340 h1         1 MAX       0.042367
     47 H262        -6.0320     2.1180     3.3570 h1         1 MAX       0.042367
     48 H263        -4.5670     1.1550     3.0750 h1         1 MAX       0.042367
@<TRIPOS>BOND
     1     1     2 ar  
     2     1     6 ar  
     3     1    27 1   
     4     2     3 ar  
     5     2    25 1   
     6     3     4 ar  
     7     3    24 1   
     8     4     5 ar  
     9     4    28 1   
    10     5     6 ar  
    11     5    29 1   
    12     6     7 1   
    13     7     8 1   
    14     7    30 1   
    15     7    31 1   
    16     8     9 1   
    17     8    12 1   
    18     8    32 1   
    19     9    10 1   
    20     9    33 1   
    21     9    34 1   
    22    10    11 1   
    23    11    12 1   
    24    11    13 2   
    25    12    14 1   
    26    12    35 1   
    27    14    15 1   
    28    14    36 1   
    29    14    37 1   
    30    15    16 ar  
    31    15    20 ar  
    32    16    17 ar  
    33    16    38 1   
    34    17    18 ar  
    35    17    39 1   
    36    18    19 ar  
    37    18    23 1   
    38    19    20 ar  
    39    19    21 1   
    40    20    40 1   
    41    21    22 1   
    42    22    41 1   
    43    22    42 1   
    44    22    43 1   
    45    23    44 1   
    46    24    45 1   
    47    25    26 1   
    48    26    46 1   
    49    26    47 1   
    50    26    48 1   
@<TRIPOS>SUBSTRUCTURE
     1 MAX         1 TEMP              0 ****  ****    0 ROOT
