@<TRIPOS>MOLECULE
MAX
   48    50     1     0     0
SMALL
bcc


@<TRIPOS>ATOM
      1 C1          -3.7780     0.7880     0.2020 ca         1 MAX      -0.169000
      2 C2          -5.1350     0.6850     0.4570 ca         1 MAX       0.051100
      3 C3          -5.9600    -0.0400    -0.4210 ca         1 MAX       0.124100
      4 C4          -5.3980    -0.6370    -1.5340 ca         1 MAX      -0.140000
      5 C5          -4.0320    -0.5280    -1.7810 ca         1 MAX      -0.119000
      6 C6          -3.2090     0.1800    -0.9210 ca         1 MAX      -0.094300
      7 C7          -1.7240     0.2690    -1.1500 c3         1 MAX      -0.014100
      8 C8          -0.9390    -0.6110    -0.1840 c5         1 MAX      -0.099700
      9 C9          -1.2850    -2.0910    -0.2920 c5         1 MAX       0.135400
     10 O10         -0.1170    -2.7820     0.1720 os         1 MAX      -0.405900
     11 C11          0.9590    -1.9910     0.1180 c          1 MAX       0.730600
     12 C12          0.5710    -0.6300    -0.4140 c5         1 MAX      -0.177700
     13 O13          2.0380    -2.3840     0.4650 o          1 MAX      -0.556500
     14 C14          1.3290     0.5320     0.2240 c3         1 MAX      -0.001100
     15 C15          2.7830     0.6170    -0.1560 ca         1 MAX      -0.086300
     16 C16          3.1590     0.9640    -1.4460 ca         1 MAX      -0.122000
     17 C17          4.5010     1.0550    -1.7980 ca         1 MAX      -0.141000
     18 C18          5.4900     0.8070    -0.8620 ca         1 MAX       0.124100
     19 C19          5.1210     0.4600     0.4470 ca         1 MAX       0.050100
     20 C20          3.7800     0.3650     0.7850 ca         1 MAX      -0.143000
     21 O21          6.1570     0.2370     1.2870 os         1 MAX      -0.344900
     22 C22          5.8760    -0.1310     2.6220 c3         1 MAX       0.132700
     23 O23          6.7870     0.9060    -1.2250 oh         1 MAX      -0.496100
     24 O24         -7.2870    -0.1590    -0.2020 oh         1 MAX      -0.493100
     25 O25         -5.7770     1.2350     1.5100 os         1 MAX      -0.342900
     26 C26         -5.0160     1.9340     2.4750 c3         1 MAX       0.133700
     27 H1          -3.1400     1.3510     0.8730 ha         1 MAX       0.133000
     28 H4          -6.0340    -1.1920    -2.2130 ha         1 MAX       0.151000
     29 H5          -3.6170    -1.0010    -2.6630 ha         1 MAX       0.134000
     30 H7C1        -1.4890    -0.0310    -2.1750 hc         1 MAX       0.053700
     31 H7C2        -1.3910     1.3050    -1.0400 hc         1 MAX       0.053700
     32 H8          -1.1280    -0.2760     0.8430 hc         1 MAX       0.066700
     33 H9C1        -2.1290    -2.3940     0.3250 h1         1 MAX       0.066700
     34 H9C2        -1.4830    -2.3850    -1.3270 h1         1 MAX       0.066700
     35 H12          0.7700    -0.6470    -1.4960 hc         1 MAX       0.086700
     36 H141         0.8290     1.4560    -0.0820 hc         1 MAX       0.049200
     37 H142         1.2230     0.4760     1.3100 hc         1 MAX       0.049200
     38 H16          2.4030     1.1720    -2.1950 ha         1 MAX       0.128000
     39 H17          4.7860     1.3260    -2.8070 ha         1 MAX       0.147000
     40 H20          3.4900     0.0860     1.7900 ha         1 MAX       0.137000
     41 H221         5.3010     0.6390     3.1420 h1         1 MAX       0.042700
     42 H222         5.3300    -1.0760     2.6740 h1         1 MAX       0.042700
     43 H223         6.8350    -0.2510     3.1200 h1         1 MAX       0.042700
     44 H23          7.3570     0.7030    -0.4740 ho         1 MAX       0.442000
     45 H24         -7.5300     0.2890     0.6170 ho         1 MAX       0.443000
     46 H261        -4.5230     2.8090     2.0460 h1         1 MAX       0.042367
     47 H262        -5.7130     2.2630     3.2420 h1         1 MAX       0.042367
     48 H263        -4.2600     1.2920     2.9340 h1         1 MAX       0.042367
@<TRIPOS>BOND
     1     1     2 ar  
     2     1     6 ar  
     3     1    27 1   
     4     2     3 ar  
     5     2    25 1   
     6     3     4 ar  
     7     3    24 1   
     8     4     5 ar  
     9     4    28 1   
    10     5     6 ar  
    11     5    29 1   
    12     6     7 1   
    13     7     8 1   
    14     7    30 1   
    15     7    31 1   
    16     8     9 1   
    17     8    12 1   
    18     8    32 1   
    19     9    10 1   
    20     9    33 1   
    21     9    34 1   
    22    10    11 1   
    23    11    12 1   
    24    11    13 2   
    25    12    14 1   
    26    12    35 1   
    27    14    15 1   
    28    14    36 1   
    29    14    37 1   
    30    15    16 ar  
    31    15    20 ar  
    32    16    17 ar  
    33    16    38 1   
    34    17    18 ar  
    35    17    39 1   
    36    18    19 ar  
    37    18    23 1   
    38    19    20 ar  
    39    19    21 1   
    40    20    40 1   
    41    21    22 1   
    42    22    41 1   
    43    22    42 1   
    44    22    43 1   
    45    23    44 1   
    46    24    45 1   
    47    25    26 1   
    48    26    46 1   
    49    26    47 1   
    50    26    48 1   
@<TRIPOS>SUBSTRUCTURE
     1 MAX         1 TEMP              0 ****  ****    0 ROOT
