@<TRIPOS>MOLECULE
MAY
   61    60     1     0     0
SMALL
No Charge or Current Charge


@<TRIPOS>ATOM
      1 F           -6.6300     1.2230     1.4930 f          1 MAY      -0.337400
      2 C1          -5.9070     0.0940    -0.8720 c3         1 MAY      -0.456400
      3 O1          -8.5010    -0.0990     0.2390 o          1 MAY      -0.708000
      4 P1          -7.3090     0.7940     0.0920 p5         1 MAY       1.528800
      5 C2          -5.2960    -1.2240    -0.3300 c3         1 MAY      -0.051400
      6 O2          -7.5670     2.2110    -0.6490 os         1 MAY      -0.616400
      7 C3          -4.1290    -1.7370    -1.2010 c3         1 MAY      -0.069400
      8 C4          -3.5090    -3.0480    -0.6750 c3         1 MAY      -0.044200
      9 C5          -2.3640    -3.5300    -1.5460 c2         1 MAY      -0.218200
     10 C6          -1.0640    -3.2020    -1.4350 c2         1 MAY      -0.210200
     11 C7          -0.4340    -2.2470    -0.4370 c3         1 MAY      -0.012000
     12 C8           0.6150    -2.9550     0.3990 c2         1 MAY      -0.214200
     13 C9           1.7410    -2.4230     0.9070 c2         1 MAY      -0.212200
     14 CM          -8.4620     3.1600    -0.0520 c3         1 MAY       0.201900
     15 C10          2.2120    -0.9850     0.7810 c3         1 MAY      -0.011000
     16 C11          2.8490    -0.5080     2.0730 c2         1 MAY      -0.215200
     17 C12          3.9370     0.2730     2.2020 c2         1 MAY      -0.212200
     18 C13          4.7660     0.8740     1.0830 c3         1 MAY      -0.011000
     19 C14          5.3550     2.2080     1.5040 c2         1 MAY      -0.214200
     20 C15          6.6560     2.5500     1.5520 c2         1 MAY      -0.215200
     21 C16          7.8480     1.6690     1.2280 c3         1 MAY      -0.043200
     22 C17          8.2160     1.7150    -0.2690 c3         1 MAY      -0.073400
     23 C18          9.4240     0.8210    -0.6250 c3         1 MAY      -0.076400
     24 C19          9.7900     0.8680    -2.1250 c3         1 MAY      -0.075400
     25 C20         10.9940    -0.0250    -2.4810 c3         1 MAY      -0.089100
     26 H1          -6.2940    -0.0470    -1.8860 hc         1 MAY       0.088200
     27 H1A         -5.1510     0.8850    -0.9040 hc         1 MAY       0.088200
     28 H2          -4.9370    -1.0680     0.6950 hc         1 MAY       0.051200
     29 H2A         -6.0750    -1.9970    -0.2820 hc         1 MAY       0.051200
     30 H3          -4.4860    -1.8950    -2.2270 hc         1 MAY       0.042200
     31 H3A         -3.3500    -0.9660    -1.2490 hc         1 MAY       0.042200
     32 H4          -3.1730    -2.8990     0.3580 hc         1 MAY       0.046700
     33 H4A         -4.2860    -3.8220    -0.6270 hc         1 MAY       0.046700
     34 H5          -2.6740    -4.2270    -2.3280 ha         1 MAY       0.166000
     35 H6          -0.3430    -3.6330    -2.1340 ha         1 MAY       0.169000
     36 H7           0.0100    -1.4070    -0.9840 hc         1 MAY       0.050200
     37 H7A         -1.1890    -1.8070     0.2240 hc         1 MAY       0.050200
     38 H8           0.3950    -4.0100     0.5770 ha         1 MAY       0.169000
     39 H9           2.4180    -3.0560     1.4840 ha         1 MAY       0.169000
     40 HM          -8.0840     3.5060     0.9190 h1         1 MAY       0.048033
     41 HMA         -8.5730     4.0380    -0.7010 h1         1 MAY       0.048033
     42 HMB         -9.4600     2.7250     0.0980 h1         1 MAY       0.048033
     43 H10          2.9210    -0.9150    -0.0520 hc         1 MAY       0.050200
     44 H10A         1.3750    -0.3230     0.5300 hc         1 MAY       0.050200
     45 H11          2.3380    -0.8640     2.9710 ha         1 MAY       0.168000
     46 H12          4.2930     0.5320     3.2010 ha         1 MAY       0.169000
     47 H13          5.5510     0.1660     0.7920 hc         1 MAY       0.051200
     48 H13A         4.1530     1.0250     0.1870 hc         1 MAY       0.051200
     49 H14          4.5980     2.9480     1.7720 ha         1 MAY       0.167000
     50 H15          6.9320     3.5590     1.8660 ha         1 MAY       0.165000
     51 H16          8.7130     1.9860     1.8240 hc         1 MAY       0.044700
     52 H16A         7.6510     0.6300     1.5190 hc         1 MAY       0.044700
     53 H17          7.3480     1.4010    -0.8610 hc         1 MAY       0.039200
     54 H17A         8.4380     2.7520    -0.5520 hc         1 MAY       0.039200
     55 H18         10.2930     1.1360    -0.0330 hc         1 MAY       0.037200
     56 H18A         9.2020    -0.2150    -0.3410 hc         1 MAY       0.037200
     57 H19          8.9240     0.5510    -2.7200 hc         1 MAY       0.036700
     58 H19A        10.0150     1.9020    -2.4130 hc         1 MAY       0.036700
     59 H20         10.7860    -1.0740    -2.2370 hc         1 MAY       0.031367
     60 H20A        11.2150     0.0410    -3.5530 hc         1 MAY       0.031367
     61 H20B        11.8870     0.2890    -1.9270 hc         1 MAY       0.031367
@<TRIPOS>BOND
     1     1     4 1   
     2     2     4 1   
     3     2     5 1   
     4     2    26 1   
     5     2    27 1   
     6     3     4 2   
     7     4     6 1   
     8     5     7 1   
     9     5    28 1   
    10     5    29 1   
    11     6    14 1   
    12     7     8 1   
    13     7    30 1   
    14     7    31 1   
    15     8     9 1   
    16     8    32 1   
    17     8    33 1   
    18     9    10 2   
    19     9    34 1   
    20    10    11 1   
    21    10    35 1   
    22    11    12 1   
    23    11    36 1   
    24    11    37 1   
    25    12    13 2   
    26    12    38 1   
    27    13    15 1   
    28    13    39 1   
    29    14    40 1   
    30    14    41 1   
    31    14    42 1   
    32    15    16 1   
    33    15    43 1   
    34    15    44 1   
    35    16    17 2   
    36    16    45 1   
    37    17    18 1   
    38    17    46 1   
    39    18    19 1   
    40    18    47 1   
    41    18    48 1   
    42    19    20 2   
    43    19    49 1   
    44    20    21 1   
    45    20    50 1   
    46    21    22 1   
    47    21    51 1   
    48    21    52 1   
    49    22    23 1   
    50    22    53 1   
    51    22    54 1   
    52    23    24 1   
    53    23    55 1   
    54    23    56 1   
    55    24    25 1   
    56    24    57 1   
    57    24    58 1   
    58    25    59 1   
    59    25    60 1   
    60    25    61 1   
@<TRIPOS>SUBSTRUCTURE
     1 MAY         1 TEMP              0 ****  ****    0 ROOT
