@<TRIPOS>MOLECULE
MAY
   61    60     1     0     0
SMALL
bcc


@<TRIPOS>ATOM
      1 F           -8.1010    -0.0540     2.3630 f          1 MAY      -0.337400
      2 C1          -7.4470    -0.3170    -0.2030 c3         1 MAY      -0.298600
      3 O1          -8.8780    -2.2090     1.2930 o          1 MAY      -0.787300
      4 P1          -8.6490    -0.7720     1.0430 p5         1 MAY       1.450300
      5 C2          -6.0970    -1.0040     0.0150 c3         1 MAY      -0.051400
      6 O2          -9.9270     0.1050     0.6850 os         1 MAY      -0.593200
      7 C3          -5.0930    -0.6120    -1.0600 c3         1 MAY      -0.069400
      8 C4          -3.7510    -1.3230    -0.8890 c3         1 MAY      -0.044200
      9 C5          -2.7910    -0.9750    -1.9820 c2         1 MAY      -0.168200
     10 C6          -1.5710    -0.4540    -1.8630 c2         1 MAY      -0.160200
     11 C7          -0.8380    -0.1280    -0.5930 c3         1 MAY      -0.012000
     12 C8           0.2770    -1.1110    -0.3760 c2         1 MAY      -0.164200
     13 C9           1.5870    -0.8810    -0.4310 c2         1 MAY      -0.162200
     14 CM         -11.1850    -0.1100     1.3410 c3         1 MAY       0.178700
     15 C10          2.2790     0.4300    -0.6740 c3         1 MAY      -0.011000
     16 C11          3.0210     0.8600     0.5580 c2         1 MAY      -0.165200
     17 C12          4.3390     0.8690     0.7500 c2         1 MAY      -0.162200
     18 C13          5.4110     0.4920    -0.2320 c3         1 MAY      -0.011000
     19 C14          6.2250     1.6980    -0.6070 c2         1 MAY      -0.164200
     20 C15          7.5010     1.9420    -0.3140 c2         1 MAY      -0.165200
     21 C16          8.4640     1.0680     0.4250 c3         1 MAY      -0.043200
     22 C17          9.7050     0.7470    -0.4100 c3         1 MAY      -0.073400
     23 C18         10.7260    -0.0930     0.3470 c3         1 MAY      -0.076400
     24 C19         11.9800    -0.3900    -0.4650 c3         1 MAY      -0.075400
     25 C20         12.9890    -1.2360     0.2990 c3         1 MAY      -0.089100
     26 H1          -7.8650    -0.6050    -1.1700 hc         1 MAY       0.088200
     27 H1A         -7.3390     0.7700    -0.2100 hc         1 MAY       0.088200
     28 H2          -5.6970    -0.7420     0.9980 hc         1 MAY       0.051200
     29 H2A         -6.2330    -2.0880     0.0110 hc         1 MAY       0.051200
     30 H3          -5.5050    -0.8480    -2.0470 hc         1 MAY       0.042200
     31 H3A         -4.9370     0.4710    -1.0410 hc         1 MAY       0.042200
     32 H4          -3.3350    -1.0910     0.0940 hc         1 MAY       0.046700
     33 H4A         -3.9270    -2.4050    -0.9010 hc         1 MAY       0.046700
     34 H5          -3.1530    -1.1700    -2.9890 ha         1 MAY       0.116000
     35 H6          -1.0090    -0.2680    -2.7740 ha         1 MAY       0.119000
     36 H7          -0.4520     0.8920    -0.6510 hc         1 MAY       0.050200
     37 H7A         -1.5140    -0.1570     0.2640 hc         1 MAY       0.050200
     38 H8          -0.0490    -2.1290    -0.1780 ha         1 MAY       0.119000
     39 H9           2.2550    -1.7200    -0.2580 ha         1 MAY       0.119000
     40 HM         -11.1200     0.1330     2.4010 h1         1 MAY       0.048033
     41 HMA        -11.9010     0.5560     0.8680 h1         1 MAY       0.048033
     42 HMB        -11.5200    -1.1390     1.2240 h1         1 MAY       0.048033
     43 H10          2.9590     0.3260    -1.5230 hc         1 MAY       0.050200
     44 H10A         1.5590     1.2040    -0.9480 hc         1 MAY       0.050200
     45 H11          2.3890     1.1670     1.3870 ha         1 MAY       0.118000
     46 H12          4.7060     1.2040     1.7160 ha         1 MAY       0.119000
     47 H13          6.0410    -0.2810     0.2130 hc         1 MAY       0.051200
     48 H13A         4.9760     0.0560    -1.1340 hc         1 MAY       0.051200
     49 H14          5.6790     2.4580    -1.1580 ha         1 MAY       0.117000
     50 H15          7.9170     2.8860    -0.6590 ha         1 MAY       0.115000
     51 H16          8.7830     1.5850     1.3380 hc         1 MAY       0.044700
     52 H16A         7.9930     0.1380     0.7510 hc         1 MAY       0.044700
     53 H17          9.4020     0.2220    -1.3210 hc         1 MAY       0.039200
     54 H17A        10.1730     1.6820    -0.7370 hc         1 MAY       0.039200
     55 H18         11.0060     0.4250     1.2710 hc         1 MAY       0.037200
     56 H18A        10.2620    -1.0360     0.6580 hc         1 MAY       0.037200
     57 H19         11.7000    -0.9010    -1.3920 hc         1 MAY       0.036700
     58 H19A        12.4450     0.5530    -0.7690 hc         1 MAY       0.036700
     59 H20         12.5640    -2.2050     0.5700 hc         1 MAY       0.031367
     60 H20A        13.8880    -1.4210    -0.2890 hc         1 MAY       0.031367
     61 H20B        13.2930    -0.7420     1.2240 hc         1 MAY       0.031367
@<TRIPOS>BOND
     1     1     4 1   
     2     2     4 1   
     3     2     5 1   
     4     2    26 1   
     5     2    27 1   
     6     3     4 2   
     7     4     6 1   
     8     5     7 1   
     9     5    28 1   
    10     5    29 1   
    11     6    14 1   
    12     7     8 1   
    13     7    30 1   
    14     7    31 1   
    15     8     9 1   
    16     8    32 1   
    17     8    33 1   
    18     9    10 2   
    19     9    34 1   
    20    10    11 1   
    21    10    35 1   
    22    11    12 1   
    23    11    36 1   
    24    11    37 1   
    25    12    13 2   
    26    12    38 1   
    27    13    15 1   
    28    13    39 1   
    29    14    40 1   
    30    14    41 1   
    31    14    42 1   
    32    15    16 1   
    33    15    43 1   
    34    15    44 1   
    35    16    17 2   
    36    16    45 1   
    37    17    18 1   
    38    17    46 1   
    39    18    19 1   
    40    18    47 1   
    41    18    48 1   
    42    19    20 2   
    43    19    49 1   
    44    20    21 1   
    45    20    50 1   
    46    21    22 1   
    47    21    51 1   
    48    21    52 1   
    49    22    23 1   
    50    22    53 1   
    51    22    54 1   
    52    23    24 1   
    53    23    55 1   
    54    23    56 1   
    55    24    25 1   
    56    24    57 1   
    57    24    58 1   
    58    25    59 1   
    59    25    60 1   
    60    25    61 1   
@<TRIPOS>SUBSTRUCTURE
     1 MAY         1 TEMP              0 ****  ****    0 ROOT
