@<TRIPOS>MOLECULE
MAZ
   20    20     1     0     0
SMALL
No Charge or Current Charge


@<TRIPOS>ATOM
      1 C1          -1.7200     0.3650     1.9850 ca         1 MAZ      -0.074000
      2 C2          -1.5920    -0.0940     0.6630 ca         1 MAZ      -0.127000
      3 C3          -0.3300    -0.4640     0.1580 ca         1 MAZ      -0.062300
      4 C4           0.8020    -0.3670     0.9920 ca         1 MAZ      -0.151000
      5 C6          -0.5840     0.4570     2.8080 ca         1 MAZ      -0.163000
      6 C12         -0.1900    -0.9610    -1.2760 c3         1 MAZ       0.219900
      7 O13          0.0690     0.1650    -2.1260 os         1 MAZ      -0.444100
      8 C16          0.2240    -0.0990    -3.4590 c          1 MAZ       0.596900
      9 O18          0.4480     0.7840    -4.2740 o          1 MAZ      -0.438000
     10 C5           0.6760     0.0920     2.3130 ca         1 MAZ       0.288000
     11 HC1         -2.6970     0.6500     2.3700 ha         1 MAZ       0.114000
     12 HC2         -2.4740    -0.1600     0.0290 ha         1 MAZ       0.116000
     13 HC4          1.7800    -0.6460     0.6090 ha         1 MAZ       0.113000
     14 HC6         -0.6890     0.8130     3.8300 ha         1 MAZ       0.114000
     15 H121         0.6310    -1.6880    -1.3330 h1         1 MAZ       0.042200
     16 H122        -1.1140    -1.4720    -1.5790 h1         1 MAZ       0.042200
     17 H16          0.1280    -1.1680    -3.7240 h5         1 MAZ      -0.011800
     18 H111         1.6700     0.3830     4.1100 hn         1 MAZ       0.448000
     19 H112         2.6700    -0.2070     2.8100 hn         1 MAZ       0.448000
     20 N11          1.7800     0.1820     3.1180 nv         1 MAZ      -1.070000
@<TRIPOS>BOND
     1     1     2 ar  
     2     1     5 ar  
     3     1    11 1   
     4     2     3 ar  
     5     2    12 1   
     6     3     4 ar  
     7     3     6 1   
     8     4    10 ar  
     9     4    13 1   
    10     5    10 ar  
    11     5    14 1   
    12     6     7 1   
    13     6    15 1   
    14     6    16 1   
    15     7     8 1   
    16     8     9 2   
    17     8    17 1   
    18    10    20 1   
    19    18    20 1   
    20    19    20 1   
@<TRIPOS>SUBSTRUCTURE
     1 MAZ         1 TEMP              0 ****  ****    0 ROOT
