@<TRIPOS>MOLECULE
MAZ
   20    20     1     0     0
SMALL
bcc


@<TRIPOS>ATOM
      1 C1          -1.6930     0.3680     1.9390 ca         1 MAZ      -0.092000
      2 C2          -1.5810    -0.1210     0.6440 ca         1 MAZ      -0.145000
      3 C3          -0.3270    -0.4910     0.1660 ca         1 MAZ      -0.062300
      4 C4           0.7920    -0.3670     0.9780 ca         1 MAZ      -0.169000
      5 C6          -0.5800     0.4920     2.7530 ca         1 MAZ      -0.181000
      6 C12         -0.1730    -0.9870    -1.2380 c3         1 MAZ       0.196700
      7 O13          0.0860     0.1570    -2.0770 os         1 MAZ      -0.420900
      8 C16          0.1990    -0.0700    -3.3740 c          1 MAZ       0.645900
      9 O18          0.4260     0.8170    -4.1490 o          1 MAZ      -0.487000
     10 C5           0.6880     0.1240     2.2840 ca         1 MAZ       0.149600
     11 HC1         -2.6640     0.6510     2.3260 ha         1 MAZ       0.132000
     12 HC2         -2.4580    -0.2220     0.0180 ha         1 MAZ       0.134000
     13 HC4          1.7650    -0.6610     0.5990 ha         1 MAZ       0.131000
     14 HC6         -0.6880     0.8720     3.7630 ha         1 MAZ       0.132000
     15 H121         0.6580    -1.6910    -1.3170 h1         1 MAZ       0.042200
     16 H122        -1.0830    -1.4880    -1.5750 h1         1 MAZ       0.042200
     17 H16          0.0640    -1.1210    -3.6730 h5         1 MAZ      -0.011800
     18 H111         1.6490     0.3070     4.0610 hn         1 MAZ       0.392800
     19 H112         2.5980    -0.2920     2.8290 hn         1 MAZ       0.392800
     20 N11          1.8100     0.2890     3.0670 nv         1 MAZ      -0.821200
@<TRIPOS>BOND
     1     1     2 ar  
     2     1     5 ar  
     3     1    11 1   
     4     2     3 ar  
     5     2    12 1   
     6     3     4 ar  
     7     3     6 1   
     8     4    10 ar  
     9     4    13 1   
    10     5    10 ar  
    11     5    14 1   
    12     6     7 1   
    13     6    15 1   
    14     6    16 1   
    15     7     8 1   
    16     8     9 2   
    17     8    17 1   
    18    10    20 1   
    19    18    20 1   
    20    19    20 1   
@<TRIPOS>SUBSTRUCTURE
     1 MAZ         1 TEMP              0 ****  ****    0 ROOT
