@<TRIPOS>MOLECULE
MB0
   43    46     1     0     0
SMALL
bcc


@<TRIPOS>ATOM
      1 C1L         -2.6570    -0.1880    -1.3740 c6         1 MB0      -0.089900
      2 C1J         -3.9080     0.5500    -1.8150 c6         1 MB0       0.164800
      3 N1W         -5.1000    -0.1920    -1.4580 n3         1 MB0      -0.718600
      4 C1A         -6.2950     0.4230    -1.9900 c3         1 MB0       0.153100
      5 C1K         -5.1870    -0.3780    -0.0260 c6         1 MB0       0.164800
      6 C1M         -3.9740    -1.1250     0.5110 c6         1 MB0      -0.089900
      7 C1Y         -2.6540    -0.4490     0.1400 c6         1 MB0       0.146400
      8 N1N         -2.5290     0.7960     0.8940 ns         1 MB0      -0.569900
      9 C1O         -1.4030     1.5310     1.0350 c          1 MB0       0.742700
     10 O1D         -1.3970     2.6380     1.5510 o          1 MB0      -0.631500
     11 C1R         -0.1940     0.8180     0.5790 cc         1 MB0      -0.112300
     12 N1X          1.0690     1.3260     0.4080 na         1 MB0       0.000600
     13 C1B          1.4180     2.7390     0.4250 c3         1 MB0       0.022600
     14 C1U          1.8970     0.2830     0.0890 ca         1 MB0      -0.026200
     15 C1Q          3.2730     0.2280    -0.1800 ca         1 MB0       0.014400
     16 CL1F         4.2820     1.6210    -0.1250 cl         1 MB0      -0.077400
     17 C1P          3.8270    -1.0050    -0.4760 ca         1 MB0       0.046400
     18 CL1E         5.5150    -1.1310    -0.8070 cl         1 MB0      -0.081400
     19 C1H          3.0620    -2.1810    -0.5110 ca         1 MB0      -0.140000
     20 C1I          1.7180    -2.1390    -0.2430 ca         1 MB0      -0.067000
     21 C1T          1.1290    -0.9080     0.0560 ca         1 MB0      -0.085800
     22 C1S         -0.1960    -0.5300     0.3660 cd         1 MB0      -0.125400
     23 C1V         -1.4440    -1.3420     0.4940 c6         1 MB0       0.073600
     24 C1G         -1.5370    -1.8750     1.8550 c1         1 MB0       0.214700
     25 N1C         -1.5870    -2.2880     2.9270 n1         1 MB0      -0.357800
     26 H1L         -2.6150    -1.1490    -1.8950 hc         1 MB0       0.064700
     27 H1LA        -1.7740     0.3760    -1.6750 hc         1 MB0       0.064700
     28 H1J         -3.9150     1.5720    -1.3960 h1         1 MB0       0.036450
     29 H1JA        -3.8790     0.6650    -2.9010 h1         1 MB0       0.036450
     30 H1A         -6.2250     0.4960    -3.0760 h1         1 MB0       0.034033
     31 H1AA        -7.1670    -0.1880    -1.7510 h1         1 MB0       0.034033
     32 H1AB        -6.4770     1.4350    -1.5960 h1         1 MB0       0.034033
     33 H1K         -5.3190     0.5830     0.5040 h1         1 MB0       0.036450
     34 H1KA        -6.0790    -0.9660     0.2030 h1         1 MB0       0.036450
     35 H1M         -4.0640    -1.2230     1.5950 hc         1 MB0       0.064700
     36 H1MA        -3.9650    -2.1350     0.0940 hc         1 MB0       0.064700
     37 HN1N        -3.3740     1.2330     1.2320 hn         1 MB0       0.326500
     38 H1B          2.1110     2.9560     1.2340 h1         1 MB0       0.068700
     39 H1BA         1.8640     3.0300    -0.5220 h1         1 MB0       0.068700
     40 H1BB         0.5190     3.3190     0.5800 h1         1 MB0       0.068700
     41 H1H          3.5470    -3.1180    -0.7490 ha         1 MB0       0.152000
     42 H1I          1.1280    -3.0460    -0.2660 ha         1 MB0       0.143000
     43 H1V         -1.4300    -2.1960    -0.1900 hc         1 MB0       0.092700
@<TRIPOS>BOND
     1     1     2 1   
     2     1     7 1   
     3     1    26 1   
     4     1    27 1   
     5     2     3 1   
     6     2    28 1   
     7     2    29 1   
     8     3     4 1   
     9     3     5 1   
    10     4    30 1   
    11     4    31 1   
    12     4    32 1   
    13     5     6 1   
    14     5    33 1   
    15     5    34 1   
    16     6     7 1   
    17     6    35 1   
    18     6    36 1   
    19     7     8 1   
    20     7    23 1   
    21     8     9 1   
    22     8    37 1   
    23     9    10 2   
    24     9    11 1   
    25    11    12 1   
    26    11    22 2   
    27    12    13 1   
    28    12    14 1   
    29    13    38 1   
    30    13    39 1   
    31    13    40 1   
    32    14    15 ar  
    33    14    21 ar  
    34    15    16 1   
    35    15    17 ar  
    36    17    18 1   
    37    17    19 ar  
    38    19    20 ar  
    39    19    41 1   
    40    20    21 ar  
    41    20    42 1   
    42    21    22 1   
    43    22    23 1   
    44    23    24 1   
    45    23    43 1   
    46    24    25 3   
@<TRIPOS>SUBSTRUCTURE
     1 MB0         1 TEMP              0 ****  ****    0 ROOT
