@<TRIPOS>MOLECULE
MB0
   43    46     1     0     0
SMALL
No Charge or Current Charge


@<TRIPOS>ATOM
      1 C1L         -2.7250    -0.2320    -1.4140 c6         1 MB0      -0.089900
      2 C1J         -4.0050     0.5040    -1.8750 c6         1 MB0       0.164800
      3 N1W         -5.2230    -0.2340    -1.4560 n3         1 MB0      -0.718600
      4 C1A         -6.4620     0.3790    -1.9830 c3         1 MB0       0.153100
      5 C1K         -5.2660    -0.4190     0.0160 c6         1 MB0       0.164800
      6 C1M         -4.0070    -1.1600     0.5310 c6         1 MB0      -0.089900
      7 C1Y         -2.6730    -0.4460     0.1330 c6         1 MB0       0.146400
      8 N1N         -2.6020     0.8790     0.7870 ns         1 MB0      -0.502900
      9 C1O         -1.4620     1.6410     0.9260 c          1 MB0       0.600200
     10 O1D         -1.5340     2.8000     1.2990 o          1 MB0      -0.556000
     11 C1R         -0.2030     0.9330     0.5700 cc         1 MB0      -0.112300
     12 N1X          1.1340     1.3740     0.4390 na         1 MB0      -0.028700
     13 C1B          1.6220     2.7570     0.5840 c3         1 MB0       0.051900
     14 C1U          1.9730     0.2980     0.1040 ca         1 MB0      -0.026200
     15 C1Q          3.3700     0.2190    -0.1300 ca         1 MB0       0.106000
     16 Cl1F         4.4480     1.6210    -0.0360 cl         1 MB0      -0.169000
     17 C1P          3.9160    -1.0510    -0.4490 ca         1 MB0       0.138000
     18 Cl1E         5.6440    -1.2420    -0.7570 cl         1 MB0      -0.173000
     19 C1H          3.0930    -2.1960    -0.5260 ca         1 MB0      -0.122000
     20 C1I          1.7110    -2.0950    -0.2860 ca         1 MB0      -0.049000
     21 C1T          1.1950    -0.8320     0.0230 ca         1 MB0      -0.085800
     22 C1S         -0.1560    -0.4330     0.3230 cd         1 MB0      -0.125400
     23 C1V         -1.3940    -1.2930     0.4910 c6         1 MB0       0.073600
     24 C1G         -1.4460    -1.8880     1.8460 c1         1 MB0       0.303900
     25 N1C         -1.4720    -2.3830     2.9020 n1         1 MB0      -0.447000
     26 H1L         -2.6790    -1.2020    -1.9270 hc         1 MB0       0.064700
     27 H1LA        -1.8480     0.3320    -1.7560 hc         1 MB0       0.064700
     28 H1J         -4.0120     1.5250    -1.4640 h1         1 MB0       0.036450
     29 H1JA        -3.9780     0.6000    -2.9700 h1         1 MB0       0.036450
     30 H1A         -6.4260     0.4450    -3.0790 h1         1 MB0       0.034033
     31 H1AA        -7.3390    -0.2230    -1.7100 h1         1 MB0       0.034033
     32 H1AB        -6.6010     1.3920    -1.5810 h1         1 MB0       0.034033
     33 H1K         -5.3520     0.5540     0.5220 h1         1 MB0       0.036450
     34 H1KA        -6.1540    -1.0040     0.2970 h1         1 MB0       0.036450
     35 H1M         -4.0890    -1.2540     1.6220 hc         1 MB0       0.064700
     36 H1MA        -4.0130    -2.1840     0.1320 hc         1 MB0       0.064700
     37 HN1N        -3.4660     1.3410     1.0390 hn         1 MB0       0.326500
     38 H1B          2.3410     2.8110     1.4100 h1         1 MB0       0.068700
     39 H1BA         2.0990     3.0800    -0.3490 h1         1 MB0       0.068700
     40 H1BB         0.7930     3.4390     0.7980 h1         1 MB0       0.068700
     41 H1H          3.5300    -3.1610    -0.7700 ha         1 MB0       0.134000
     42 H1I          1.0690    -2.9720    -0.3390 ha         1 MB0       0.125000
     43 H1V         -1.3390    -2.1540    -0.1870 hc         1 MB0       0.092700
@<TRIPOS>BOND
     1     1     2 1   
     2     1     7 1   
     3     1    26 1   
     4     1    27 1   
     5     2     3 1   
     6     2    28 1   
     7     2    29 1   
     8     3     4 1   
     9     3     5 1   
    10     4    30 1   
    11     4    31 1   
    12     4    32 1   
    13     5     6 1   
    14     5    33 1   
    15     5    34 1   
    16     6     7 1   
    17     6    35 1   
    18     6    36 1   
    19     7     8 1   
    20     7    23 1   
    21     8     9 1   
    22     8    37 1   
    23     9    10 2   
    24     9    11 1   
    25    11    12 1   
    26    11    22 2   
    27    12    13 1   
    28    12    14 1   
    29    13    38 1   
    30    13    39 1   
    31    13    40 1   
    32    14    15 ar  
    33    14    21 ar  
    34    15    16 1   
    35    15    17 ar  
    36    17    18 1   
    37    17    19 ar  
    38    19    20 ar  
    39    19    41 1   
    40    20    21 ar  
    41    20    42 1   
    42    21    22 1   
    43    22    23 1   
    44    23    24 1   
    45    23    43 1   
    46    24    25 3   
@<TRIPOS>SUBSTRUCTURE
     1 MB0         1 TEMP              0 ****  ****    0 ROOT
