@<TRIPOS>MOLECULE
MB1
   19    19     1     0     0
SMALL
abcg2


@<TRIPOS>ATOM
      1 S1           1.7520     1.2150    -0.1380 sy         1 MB1       1.159600
      2 O1           1.1940     2.5530    -0.1430 o          1 MB1      -0.514000
      3 O2           2.6040     0.7740    -1.2230 o          1 MB1      -0.514000
      4 N1           2.6020     1.0600     1.2450 n8         1 MB1      -1.015100
      5 C1          -1.8610    -1.5850     0.0370 ca         1 MB1       0.008000
      6 C2          -2.0050    -0.2080    -0.0020 ca         1 MB1      -0.199200
      7 C3          -0.9110     0.6380    -0.0450 ca         1 MB1       0.053000
      8 C4           0.3600     0.0910    -0.0480 ca         1 MB1      -0.313500
      9 C5           0.5190    -1.2930    -0.0080 ca         1 MB1       0.225000
     10 C6          -0.5890    -2.1250     0.0360 ca         1 MB1      -0.134000
     11 CL           2.0750    -2.0180     0.0170 cl         1 MB1      -0.151000
     12 O3          -3.4380     1.5710    -0.0360 o          1 MB1      -0.386500
     13 O4          -4.2800    -0.3890     0.0500 o          1 MB1      -0.386500
     14 HN11         2.1060     1.3380     2.0840 hn         1 MB1       0.489500
     15 HN12         3.1000     0.1850     1.3580 hn         1 MB1       0.489500
     16 H1          -2.7160    -2.2430     0.0700 ha         1 MB1       0.161000
     17 H3          -1.0390     1.7110    -0.0760 ha         1 MB1       0.185000
     18 H6          -0.4590    -3.1970     0.0700 ha         1 MB1       0.147000
     19 N2          -3.3430     0.3690     0.0040 no         1 MB1       0.696200
@<TRIPOS>BOND
     1     1     2 2   
     2     1     3 2   
     3     1     4 1   
     4     1     8 1   
     5     4    14 1   
     6     4    15 1   
     7     5     6 ar  
     8     5    10 ar  
     9     5    16 1   
    10     6     7 ar  
    11     6    19 1   
    12     7     8 ar  
    13     7    17 1   
    14     8     9 ar  
    15     9    10 ar  
    16     9    11 1   
    17    10    18 1   
    18    12    19 1   
    19    13    19 1   
@<TRIPOS>SUBSTRUCTURE
     1 MB1         1 TEMP              0 ****  ****    0 ROOT
