@<TRIPOS>MOLECULE
MB1
   19    19     1     0     0
SMALL
No Charge or Current Charge


@<TRIPOS>ATOM
      1 S1           1.8400     0.9710    -0.1360 sy         1 MB1       1.159600
      2 O1           1.5040     2.3860    -0.2680 o          1 MB1      -0.514000
      3 O2           2.8430     0.3370    -0.9880 o          1 MB1      -0.514000
      4 N1           2.4770     0.8520     1.3610 n8         1 MB1      -1.015100
      5 C1          -2.0350    -1.5230     0.1280 ca         1 MB1       0.008000
      6 C2          -2.1010    -0.1180    -0.0020 ca         1 MB1      -0.199200
      7 C3          -0.9010     0.6270    -0.0780 ca         1 MB1       0.053000
      8 C4           0.3530    -0.0240    -0.0280 ca         1 MB1      -0.313500
      9 C5           0.4040    -1.4290     0.1080 ca         1 MB1       0.225000
     10 C6          -0.7890    -2.1650     0.1840 ca         1 MB1      -0.134000
     11 Cl           1.9160    -2.3330     0.2150 cl         1 MB1      -0.151000
     12 O3          -3.4380     1.8070    -0.1740 o          1 MB1      -0.386500
     13 O4          -4.4510    -0.1160     0.0140 o          1 MB1      -0.386500
     14 HN11         3.3790     0.4360     1.1380 hn         1 MB1       0.489500
     15 HN12         2.7290     1.8230     1.5310 hn         1 MB1       0.489500
     16 H1          -2.9410    -2.1240     0.1900 ha         1 MB1       0.161000
     17 H3          -0.9450     1.7120    -0.1770 ha         1 MB1       0.185000
     18 H6          -0.7460    -3.2450     0.2900 ha         1 MB1       0.147000
     19 N2          -3.4260     0.5740    -0.0580 no         1 MB1       0.696200
@<TRIPOS>BOND
     1     1     2 2   
     2     1     3 2   
     3     1     4 1   
     4     1     8 1   
     5     4    14 1   
     6     4    15 1   
     7     5     6 ar  
     8     5    10 ar  
     9     5    16 1   
    10     6     7 ar  
    11     6    19 1   
    12     7     8 ar  
    13     7    17 1   
    14     8     9 ar  
    15     9    10 ar  
    16     9    11 1   
    17    10    18 1   
    18    12    19 1   
    19    13    19 1   
@<TRIPOS>SUBSTRUCTURE
     1 MB1         1 TEMP              0 ****  ****    0 ROOT
