@<TRIPOS>MOLECULE
MB3
   16    16     1     0     0
SMALL
No Charge or Current Charge


@<TRIPOS>ATOM
      1 CAA          1.8380     1.0470     0.0560 c3         1 MB3       0.094300
      2 OAB          0.9770    -1.6240     0.6310 o          1 MB3      -0.553000
      3 CAC         -1.8360     0.4220     0.3000 c5         1 MB3      -0.091400
      4 CAD         -1.2960    -0.9640    -0.1410 c5         1 MB3      -0.169400
      5 CAE         -0.7260     1.3650    -0.2620 c5         1 MB3       0.096000
      6 CAF          0.2030    -0.8330     0.1110 c          1 MB3       0.562000
      7 NAG          0.4750     0.5160    -0.1250 n          1 MB3      -0.417800
      8 HAA          2.1070     1.0220     1.1200 h1         1 MB3       0.042033
      9 HAAA         2.5530     0.4400    -0.5140 h1         1 MB3       0.042033
     10 HAAB         1.8850     2.0840    -0.3020 h1         1 MB3       0.042033
     11 HAC         -2.8310     0.6490    -0.1020 hc         1 MB3       0.056200
     12 HACA        -1.8940     0.4930     1.3920 hc         1 MB3       0.056200
     13 HAD         -1.7240    -1.8280     0.3770 hc         1 MB3       0.076200
     14 HADA        -1.4500    -1.0600    -1.2220 hc         1 MB3       0.076200
     15 HAE         -0.9020     1.6130    -1.3180 h1         1 MB3       0.044200
     16 HAEA        -0.6470     2.2990     0.3100 h1         1 MB3       0.044200
@<TRIPOS>BOND
     1     1     7 1   
     2     1     8 1   
     3     1     9 1   
     4     1    10 1   
     5     2     6 2   
     6     3     4 1   
     7     3     5 1   
     8     3    11 1   
     9     3    12 1   
    10     4     6 1   
    11     4    13 1   
    12     4    14 1   
    13     5     7 1   
    14     5    15 1   
    15     5    16 1   
    16     6     7 1   
@<TRIPOS>SUBSTRUCTURE
     1 MB3         1 TEMP              0 ****  ****    0 ROOT
