@<TRIPOS>MOLECULE
MB3
   16    16     1     0     0
SMALL
abcg2


@<TRIPOS>ATOM
      1 CAA          1.8000     1.0760     0.0500 c3         1 MB3       0.094300
      2 OAB          1.0330    -1.7010    -0.0640 o          1 MB3      -0.553000
      3 CAC         -1.8440     0.3980     0.2830 c5         1 MB3      -0.091400
      4 CAD         -1.2950    -0.9570    -0.1510 c5         1 MB3      -0.169400
      5 CAE         -0.6950     1.3600    -0.0230 c5         1 MB3       0.096000
      6 CAF          0.2070    -0.8010    -0.0370 c          1 MB3       0.562000
      7 NAG          0.4770     0.5140     0.0720 n          1 MB3      -0.417800
      8 HAA          1.9090     1.8190     0.8410 h1         1 MB3       0.042033
      9 HAAA         2.5370     0.2920     0.2070 h1         1 MB3       0.042033
     10 HAAB         2.0070     1.5630    -0.9050 h1         1 MB3       0.042033
     11 HAC         -2.7620     0.6790    -0.2280 hc         1 MB3       0.056200
     12 HACA        -2.0460     0.3950     1.3550 hc         1 MB3       0.056200
     13 HAD         -1.6540    -1.7970     0.4430 hc         1 MB3       0.076200
     14 HADA        -1.5320    -1.1740    -1.1970 hc         1 MB3       0.076200
     15 HAE         -0.7770     1.7930    -1.0260 h1         1 MB3       0.044200
     16 HAEA        -0.6340     2.1840     0.6900 h1         1 MB3       0.044200
@<TRIPOS>BOND
     1     1     7 1   
     2     1     8 1   
     3     1     9 1   
     4     1    10 1   
     5     2     6 2   
     6     3     4 1   
     7     3     5 1   
     8     3    11 1   
     9     3    12 1   
    10     4     6 1   
    11     4    13 1   
    12     4    14 1   
    13     5     7 1   
    14     5    15 1   
    15     5    16 1   
    16     6     7 1   
@<TRIPOS>SUBSTRUCTURE
     1 MB3         1 TEMP              0 ****  ****    0 ROOT
