@<TRIPOS>MOLECULE
MB5
   50    55     1     0     0
SMALL
No Charge or Current Charge


@<TRIPOS>ATOM
      1 N           65.8010    22.9110    88.9940 ns         1 MB5      -0.511900
      2 C           65.0940    22.9990    90.1830 c          1 MB5       0.538000
      3 O           65.5320    23.5650    91.1750 o          1 MB5      -0.552000
      4 C1          63.6970    22.2580    89.9630 c5         1 MB5       0.110200
      5 C10         66.7080    20.9590    81.4120 ca         1 MB5       0.140000
      6 C11         65.9180    20.0590    82.1590 ca         1 MB5      -0.122000
      7 C12         65.6990    20.3530    83.5100 ca         1 MB5      -0.037200
      8 C13         65.0220    20.3100    85.6960 cc         1 MB5      -0.041300
      9 C14         64.3420    19.8960    86.9900 c6         1 MB5       0.025200
     10 C15         62.7940    19.9370    86.7360 c3         1 MB5      -0.085100
     11 C16         64.6870    18.4060    87.3030 c3         1 MB5      -0.085100
     12 C17         63.8070    23.0960    87.6200 c6         1 MB5       0.165800
     13 C18         62.3290    24.0950    89.4440 c5         1 MB5       0.171800
     14 C19         61.6820    23.4760    90.7090 c5         1 MB5      -0.083400
     15 C2          64.0050    20.7940    89.4920 c6         1 MB5      -0.055400
     16 C20         62.7340    22.4190    91.1880 c5         1 MB5      -0.055400
     17 C3          64.8790    20.8130    88.1700 c6         1 MB5      -0.044700
     18 C4          65.1830    22.3100    87.7880 c6         1 MB5       0.116400
     19 C5          66.1300    22.4310    86.5660 c6         1 MB5       0.000800
     20 C6          65.7970    21.4440    85.4730 cd         1 MB5      -0.143400
     21 C7          66.2250    21.4700    84.0950 ca         1 MB5      -0.089800
     22 C8          67.0140    22.3840    83.3850 ca         1 MB5      -0.054000
     23 C9          67.2540    22.1160    82.0200 ca         1 MB5      -0.133000
     24 N1          64.9730    19.6460    84.4520 na         1 MB5      -0.213700
     25 N2          62.9110    22.8840    88.8370 n3         1 MB5      -0.737600
     26 Cl          67.0170    20.6410    79.7100 cl         1 MB5      -0.211000
     27 H1          66.7140    23.3440    88.9480 hn         1 MB5       0.319500
     28 H2          65.4970    19.1700    81.6980 ha         1 MB5       0.130000
     29 H3          62.2180    19.4950    87.5560 hc         1 MB5       0.040700
     30 H4          62.4100    20.9450    86.5720 hc         1 MB5       0.040700
     31 H5          62.5290    19.3580    85.8440 hc         1 MB5       0.040700
     32 H6          64.2380    18.0800    88.2490 hc         1 MB5       0.040700
     33 H7          64.3250    17.7300    86.5190 hc         1 MB5       0.040700
     34 H8          65.7710    18.2570    87.3830 hc         1 MB5       0.040700
     35 H9          64.0430    24.1650    87.5090 h1         1 MB5       0.052200
     36 H10         63.3020    22.8080    86.6900 h1         1 MB5       0.052200
     37 H11         63.0980    24.8350    89.7050 h1         1 MB5       0.038700
     38 H12         61.5890    24.5790    88.7920 h1         1 MB5       0.038700
     39 H13         61.4660    24.2310    91.4730 hc         1 MB5       0.053200
     40 H14         60.7320    22.9910    90.4570 hc         1 MB5       0.053200
     41 H15         63.0670    20.2420    89.3780 hc         1 MB5       0.057700
     42 H16         64.5570    20.2720    90.2850 hc         1 MB5       0.057700
     43 H17         62.2410    21.4740    91.4430 hc         1 MB5       0.059700
     44 H18         63.2580    22.7470    92.0920 hc         1 MB5       0.059700
     45 H19         65.8590    20.3960    88.4470 hc         1 MB5       0.061700
     46 H20         67.1640    22.2500    86.8910 hc         1 MB5       0.056700
     47 H21         66.1120    23.4590    86.1800 hc         1 MB5       0.056700
     48 H22         67.4260    23.2680    83.8670 ha         1 MB5       0.118000
     49 H23         67.8600    22.7990    81.4320 ha         1 MB5       0.128000
     50 H24         64.4760    18.7810    84.2720 hn         1 MB5       0.353000
@<TRIPOS>BOND
     1     1     2 1   
     2     1    18 1   
     3     1    27 1   
     4     2     3 2   
     5     2     4 1   
     6     4    15 1   
     7     4    16 1   
     8     4    25 1   
     9     5     6 ar  
    10     5    23 ar  
    11     5    26 1   
    12     6     7 ar  
    13     6    28 1   
    14     7    21 ar  
    15     7    24 1   
    16     8     9 1   
    17     8    20 2   
    18     8    24 1   
    19     9    10 1   
    20     9    11 1   
    21     9    17 1   
    22    10    29 1   
    23    10    30 1   
    24    10    31 1   
    25    11    32 1   
    26    11    33 1   
    27    11    34 1   
    28    12    18 1   
    29    12    25 1   
    30    12    35 1   
    31    12    36 1   
    32    13    14 1   
    33    13    25 1   
    34    13    37 1   
    35    13    38 1   
    36    14    16 1   
    37    14    39 1   
    38    14    40 1   
    39    15    17 1   
    40    15    41 1   
    41    15    42 1   
    42    16    43 1   
    43    16    44 1   
    44    17    18 1   
    45    17    45 1   
    46    18    19 1   
    47    19    20 1   
    48    19    46 1   
    49    19    47 1   
    50    20    21 1   
    51    21    22 ar  
    52    22    23 ar  
    53    22    48 1   
    54    23    49 1   
    55    24    50 1   
@<TRIPOS>SUBSTRUCTURE
     1 MB5         1 TEMP              0 ****  ****    0 ROOT
