@<TRIPOS>MOLECULE
MB5
   50    55     1     0     0
SMALL
abcg2


@<TRIPOS>ATOM
      1 N           65.7480    22.8950    89.0280 ns         1 MB5      -0.511900
      2 C           64.9770    22.9410    90.1310 c          1 MB5       0.538000
      3 O           65.2700    23.5210    91.1650 o          1 MB5      -0.552000
      4 C1          63.6910    22.1620    89.8620 c5         1 MB5       0.110200
      5 C10         66.6240    20.9630    81.5280 ca         1 MB5       0.140000
      6 C11         65.8400    20.0830    82.2470 ca         1 MB5      -0.122000
      7 C12         65.6470    20.3810    83.5930 ca         1 MB5      -0.037200
      8 C13         65.0320    20.3890    85.7420 cc         1 MB5      -0.041300
      9 C14         64.3480    19.9420    86.9980 c6         1 MB5       0.025200
     10 C15         62.8250    20.0160    86.7950 c3         1 MB5      -0.085100
     11 C16         64.7080    18.4790    87.3060 c3         1 MB5      -0.085100
     12 C17         63.8550    23.0450    87.5920 c6         1 MB5       0.165800
     13 C18         62.2310    23.9160    89.2370 c5         1 MB5       0.171800
     14 C19         61.9480    23.5890    90.7160 c5         1 MB5      -0.083400
     15 C2          64.1100    20.7480    89.4640 c6         1 MB5      -0.055400
     16 C20         62.6690    22.2600    90.9770 c5         1 MB5      -0.055400
     17 C3          64.9220    20.8080    88.1540 c6         1 MB5      -0.044700
     18 C4          65.1720    22.3000    87.8240 c6         1 MB5       0.116400
     19 C5          66.1440    22.4600    86.6620 c6         1 MB5       0.000800
     20 C6          65.8080    21.5000    85.5740 cd         1 MB5      -0.143400
     21 C7          66.2180    21.5200    84.2050 ca         1 MB5      -0.089800
     22 C8          67.0030    22.3810    83.4370 ca         1 MB5      -0.054000
     23 C9          67.2060    22.1020    82.0990 ca         1 MB5      -0.133000
     24 N1          64.9360    19.7180    84.5470 na         1 MB5      -0.213700
     25 N2          62.9950    22.7860    88.7310 n3         1 MB5      -0.737600
     26 CL          66.9030    20.6480    79.8400 cl         1 MB5      -0.211000
     27 H1          66.5960    23.4420    88.9740 hn         1 MB5       0.319500
     28 H2          65.3980    19.2090    81.7870 ha         1 MB5       0.130000
     29 H3          62.2820    19.6580    87.6700 hc         1 MB5       0.040700
     30 H4          62.4690    21.0190    86.5740 hc         1 MB5       0.040700
     31 H5          62.5330    19.3720    85.9630 hc         1 MB5       0.040700
     32 H6          64.2660    18.1740    88.2570 hc         1 MB5       0.040700
     33 H7          64.3260    17.7980    86.5430 hc         1 MB5       0.040700
     34 H8          65.7870    18.3400    87.3770 hc         1 MB5       0.040700
     35 H9          64.0900    24.1160    87.4960 h1         1 MB5       0.052200
     36 H10         63.3850    22.7450    86.6520 h1         1 MB5       0.052200
     37 H11         62.7970    24.8560    89.1580 h1         1 MB5       0.038700
     38 H12         61.3170    24.0510    88.6550 h1         1 MB5       0.038700
     39 H13         62.3420    24.3770    91.3570 hc         1 MB5       0.053200
     40 H14         60.8810    23.5110    90.9210 hc         1 MB5       0.053200
     41 H15         63.2110    20.1380    89.3640 hc         1 MB5       0.057700
     42 H16         64.6970    20.2970    90.2660 hc         1 MB5       0.057700
     43 H17         61.9750    21.4230    90.8850 hc         1 MB5       0.059700
     44 H18         63.1210    22.2080    91.9660 hc         1 MB5       0.059700
     45 H19         65.9180    20.3990    88.3500 hc         1 MB5       0.061700
     46 H20         67.1630    22.2810    87.0240 hc         1 MB5       0.056700
     47 H21         66.1250    23.4920    86.2970 hc         1 MB5       0.056700
     48 H22         67.4520    23.2630    83.8770 ha         1 MB5       0.118000
     49 H23         67.8120    22.7590    81.4900 ha         1 MB5       0.128000
     50 H24         64.4150    18.8700    84.3930 hn         1 MB5       0.353000
@<TRIPOS>BOND
     1     1     2 1   
     2     1    18 1   
     3     1    27 1   
     4     2     3 2   
     5     2     4 1   
     6     4    15 1   
     7     4    16 1   
     8     4    25 1   
     9     5     6 ar  
    10     5    23 ar  
    11     5    26 1   
    12     6     7 ar  
    13     6    28 1   
    14     7    21 ar  
    15     7    24 1   
    16     8     9 1   
    17     8    20 2   
    18     8    24 1   
    19     9    10 1   
    20     9    11 1   
    21     9    17 1   
    22    10    29 1   
    23    10    30 1   
    24    10    31 1   
    25    11    32 1   
    26    11    33 1   
    27    11    34 1   
    28    12    18 1   
    29    12    25 1   
    30    12    35 1   
    31    12    36 1   
    32    13    14 1   
    33    13    25 1   
    34    13    37 1   
    35    13    38 1   
    36    14    16 1   
    37    14    39 1   
    38    14    40 1   
    39    15    17 1   
    40    15    41 1   
    41    15    42 1   
    42    16    43 1   
    43    16    44 1   
    44    17    18 1   
    45    17    45 1   
    46    18    19 1   
    47    19    20 1   
    48    19    46 1   
    49    19    47 1   
    50    20    21 1   
    51    21    22 ar  
    52    22    23 ar  
    53    22    48 1   
    54    23    49 1   
    55    24    50 1   
@<TRIPOS>SUBSTRUCTURE
     1 MB5         1 TEMP              0 ****  ****    0 ROOT
