@<TRIPOS>MOLECULE
MB8
   14    13     1     0     0
SMALL
No Charge or Current Charge


@<TRIPOS>ATOM
      1 C            0.8670    -0.5690    -0.0910 c          1 MB8       0.704200
      2 O            0.3810    -1.6890    -0.1170 o          1 MB8      -0.734000
      3 O2           2.0770    -0.3940    -0.1380 o          1 MB8      -0.734000
      4 C2          -0.0410     0.6560     0.0010 ce         1 MB8      -0.169400
      5 C3           0.6660     2.0100     0.0260 c3         1 MB8      -0.029900
      6 C4          -1.4040     0.6260     0.0600 c2         1 MB8      -0.251200
      7 C5          -2.3350    -0.5720     0.0520 c3         1 MB8      -0.016900
      8 H2           1.2620     2.1630    -0.8820 hc         1 MB8       0.017700
      9 H3          -0.0390     2.8470     0.0930 hc         1 MB8       0.017700
     10 H4           1.3410     2.0890     0.8870 hc         1 MB8       0.017700
     11 H5          -1.9520     1.5660     0.1240 ha         1 MB8       0.112000
     12 H6          -2.2240    -1.1570    -0.8690 hc         1 MB8       0.021700
     13 H7          -2.1450    -1.2320     0.9060 hc         1 MB8       0.021700
     14 H8          -3.3830    -0.2530     0.1120 hc         1 MB8       0.021700
@<TRIPOS>BOND
     1     1     2 1   
     2     1     3 1   
     3     1     4 1   
     4     4     5 1   
     5     4     6 2   
     6     5     8 1   
     7     5     9 1   
     8     5    10 1   
     9     6     7 1   
    10     6    11 1   
    11     7    12 1   
    12     7    13 1   
    13     7    14 1   
@<TRIPOS>SUBSTRUCTURE
     1 MB8         1 TEMP              0 ****  ****    0 ROOT
