@<TRIPOS>MOLECULE
MB8
   14    13     1     0     0
SMALL
bcc


@<TRIPOS>ATOM
      1 C            0.8370    -0.5610    -0.0920 c          1 MB8       0.914800
      2 O            0.2950    -1.6860    -0.1030 o          1 MB8      -0.839300
      3 O2           2.0660    -0.3420    -0.1520 o          1 MB8      -0.839300
      4 C2          -0.0530     0.6660     0.0020 ce         1 MB8      -0.169400
      5 C3           0.6500     1.9950     0.0270 c3         1 MB8      -0.029900
      6 C4          -1.3910     0.6200     0.0610 c2         1 MB8      -0.201200
      7 C5          -2.3050    -0.5690     0.0500 c3         1 MB8      -0.016900
      8 H2           1.2620     2.1420    -0.8650 hc         1 MB8       0.017700
      9 H3          -0.0590     2.8220     0.0860 hc         1 MB8       0.017700
     10 H4           1.3270     2.0750     0.8800 hc         1 MB8       0.017700
     11 H5          -1.9010     1.5780     0.1270 ha         1 MB8       0.062000
     12 H6          -2.1940    -1.1690    -0.8530 hc         1 MB8       0.021700
     13 H7          -2.1210    -1.2410     0.8880 hc         1 MB8       0.021700
     14 H8          -3.3430    -0.2400     0.1070 hc         1 MB8       0.021700
@<TRIPOS>BOND
     1     1     2 1   
     2     1     3 1   
     3     1     4 1   
     4     4     5 1   
     5     4     6 2   
     6     5     8 1   
     7     5     9 1   
     8     5    10 1   
     9     6     7 1   
    10     6    11 1   
    11     7    12 1   
    12     7    13 1   
    13     7    14 1   
@<TRIPOS>SUBSTRUCTURE
     1 MB8         1 TEMP              0 ****  ****    0 ROOT
