@<TRIPOS>MOLECULE
MB9
   40    43     1     0     0
SMALL
No Charge or Current Charge


@<TRIPOS>ATOM
      1 C1K         -3.7630    -1.2420     0.3580 c6         1 MB9      -0.130900
      2 C1I         -5.0600    -0.6490    -0.2490 c6         1 MB9       0.147800
      3 N1M         -4.9630    -0.5600    -1.7220 n7         1 MB9      -0.841400
      4 C1J         -3.8040     0.2460    -2.1660 c6         1 MB9       0.147800
      5 C1L         -2.4880    -0.3470    -1.6130 c6         1 MB9      -0.130900
      6 C1W         -2.4760    -0.4510    -0.0520 c6         1 MB9       0.148400
      7 N1N         -2.5380     0.9180     0.5030 ns         1 MB9      -0.499900
      8 C1O         -1.4700     1.7810     0.6230 c          1 MB9       0.599200
      9 O1C         -1.6450     2.9550     0.9060 o          1 MB9      -0.554000
     10 C1Q         -0.1480     1.1570     0.3660 cc         1 MB9      -0.116300
     11 N1V          1.1510     1.6980     0.2570 na         1 MB9      -0.037700
     12 C1A          1.5540     3.1130     0.3370 c3         1 MB9       0.064900
     13 C1T          2.0770     0.6840     0.0410 ca         1 MB9      -0.032200
     14 C1H          3.4710     0.7540    -0.1210 ca         1 MB9      -0.117000
     15 C1P          4.1710    -0.4540    -0.3220 ca         1 MB9       0.142000
     16 Cl1D         5.9170    -0.4210    -0.5320 cl         1 MB9      -0.203000
     17 C1F          3.4850    -1.6910    -0.3550 ca         1 MB9      -0.128000
     18 C1G          2.0850    -1.7330    -0.1860 ca         1 MB9      -0.049000
     19 C1S          1.4200    -0.5160     0.0090 ca         1 MB9      -0.090800
     20 C1R          0.0240    -0.2170     0.2220 cd         1 MB9      -0.122400
     21 C1U         -1.1450    -1.1640     0.4050 c6         1 MB9       0.074600
     22 C1E         -1.2010    -1.6710     1.7950 c1         1 MB9       0.303900
     23 N1B         -1.2240    -2.0950     2.8810 n1         1 MB9      -0.448000
     24 H1K         -3.8760    -1.2600     1.4500 hc         1 MB9       0.061450
     25 H1KA        -3.6700    -2.2910     0.0420 hc         1 MB9       0.061450
     26 H1I         -5.9170    -1.2820     0.0270 h1         1 MB9       0.058950
     27 H1IA        -5.2470     0.3510     0.1710 h1         1 MB9       0.058950
     28 HN1M        -4.8610    -1.5100    -2.1000 hn         1 MB9       0.406000
     29 H1J         -3.7660     0.2640    -3.2660 h1         1 MB9       0.058950
     30 H1JA        -3.9200     1.2870    -1.8270 h1         1 MB9       0.058950
     31 H1L         -2.3370    -1.3420    -2.0540 hc         1 MB9       0.061450
     32 H1LA        -1.6470     0.2660    -1.9640 hc         1 MB9       0.061450
     33 HN1N        -3.4460     1.3220     0.6910 hn         1 MB9       0.325500
     34 H1A          2.0130     3.3070     1.3140 h1         1 MB9       0.061700
     35 H1AA         2.2770     3.3390    -0.4560 h1         1 MB9       0.061700
     36 H1AB         0.6820     3.7640     0.2110 h1         1 MB9       0.061700
     37 H1H          4.0020     1.7010    -0.0920 ha         1 MB9       0.134000
     38 H1F          4.0400    -2.6120    -0.5090 ha         1 MB9       0.131000
     39 H1G          1.5450    -2.6770    -0.2040 ha         1 MB9       0.121000
     40 H1U         -0.9920    -2.0590    -0.2110 hc         1 MB9       0.088700
@<TRIPOS>BOND
     1     1     2 1   
     2     1     6 1   
     3     1    24 1   
     4     1    25 1   
     5     2     3 1   
     6     2    26 1   
     7     2    27 1   
     8     3     4 1   
     9     3    28 1   
    10     4     5 1   
    11     4    29 1   
    12     4    30 1   
    13     5     6 1   
    14     5    31 1   
    15     5    32 1   
    16     6     7 1   
    17     6    21 1   
    18     7     8 1   
    19     7    33 1   
    20     8     9 2   
    21     8    10 1   
    22    10    11 1   
    23    10    20 2   
    24    11    12 1   
    25    11    13 1   
    26    12    34 1   
    27    12    35 1   
    28    12    36 1   
    29    13    14 ar  
    30    13    19 ar  
    31    14    15 ar  
    32    14    37 1   
    33    15    16 1   
    34    15    17 ar  
    35    17    18 ar  
    36    17    38 1   
    37    18    19 ar  
    38    18    39 1   
    39    19    20 1   
    40    20    21 1   
    41    21    22 1   
    42    21    40 1   
    43    22    23 3   
@<TRIPOS>SUBSTRUCTURE
     1 MB9         1 TEMP              0 ****  ****    0 ROOT
