@<TRIPOS>MOLECULE
MB9
   40    43     1     0     0
SMALL
abcg2


@<TRIPOS>ATOM
      1 C1K         -3.7200    -1.1970     0.3550 c6         1 MB9      -0.130900
      2 C1I         -4.9790    -0.6120    -0.2890 c6         1 MB9       0.147800
      3 N1M         -4.9010    -0.4730    -1.7300 n7         1 MB9      -0.841400
      4 C1J         -3.7150     0.2660    -2.1260 c6         1 MB9       0.147800
      5 C1L         -2.4130    -0.3120    -1.5770 c6         1 MB9      -0.130900
      6 C1W         -2.4480    -0.4450    -0.0440 c6         1 MB9       0.148400
      7 N1N         -2.4500     0.8670     0.6040 ns         1 MB9      -0.499900
      8 C1O         -1.3870     1.7010     0.6980 c          1 MB9       0.599200
      9 O1C         -1.4780     2.8640     1.0580 o          1 MB9      -0.554000
     10 C1Q         -0.1130     1.0390     0.3870 cc         1 MB9      -0.116300
     11 N1V          1.1070     1.6410     0.2350 na         1 MB9      -0.037700
     12 C1A          1.3870     3.0620     0.2920 c3         1 MB9       0.064900
     13 C1T          2.0300     0.6600     0.0170 ca         1 MB9      -0.032200
     14 C1H          3.4060     0.7640    -0.2040 ca         1 MB9      -0.117000
     15 C1P          4.0900    -0.4140    -0.3990 ca         1 MB9       0.142000
     16 CL1D         5.8020    -0.3480    -0.6750 cl         1 MB9      -0.203000
     17 C1F          3.4690    -1.6750    -0.3860 ca         1 MB9      -0.128000
     18 C1G          2.1140    -1.7660    -0.1690 ca         1 MB9      -0.049000
     19 C1S          1.3760    -0.5950     0.0340 ca         1 MB9      -0.090800
     20 C1R          0.0080    -0.3160     0.2670 cd         1 MB9      -0.122400
     21 C1U         -1.1820    -1.2080     0.4160 c6         1 MB9       0.074600
     22 C1E         -1.2820    -1.6380     1.8130 c1         1 MB9       0.303900
     23 N1B         -1.3340    -1.9610     2.9160 n1         1 MB9      -0.448000
     24 H1K         -3.8330    -1.2050     1.4420 hc         1 MB9       0.061450
     25 H1KA        -3.6090    -2.2370     0.0360 hc         1 MB9       0.061450
     26 H1I         -5.8300    -1.2470    -0.0370 h1         1 MB9       0.058950
     27 H1IA        -5.2060     0.3710     0.1400 h1         1 MB9       0.058950
     28 HN1M        -4.8700    -1.3950    -2.1480 hn         1 MB9       0.406000
     29 H1J         -3.6620     0.2930    -3.2150 h1         1 MB9       0.058950
     30 H1JA        -3.8300     1.3050    -1.8000 h1         1 MB9       0.058950
     31 H1L         -2.2530    -1.3060    -2.0060 hc         1 MB9       0.061450
     32 H1LA        -1.5700     0.3050    -1.8930 hc         1 MB9       0.061450
     33 HN1N        -3.3440     1.2830     0.8200 hn         1 MB9       0.325500
     34 H1A          1.2780     3.4420     1.3050 h1         1 MB9       0.061700
     35 H1AA         2.4070     3.2320    -0.0350 h1         1 MB9       0.061700
     36 H1AB         0.7220     3.6110    -0.3690 h1         1 MB9       0.061700
     37 H1H          3.9210     1.7140    -0.2220 ha         1 MB9       0.134000
     38 H1F          4.0580    -2.5660    -0.5480 ha         1 MB9       0.131000
     39 H1G          1.6320    -2.7360    -0.1580 ha         1 MB9       0.121000
     40 H1U         -1.0860    -2.1100    -0.1950 hc         1 MB9       0.088700
@<TRIPOS>BOND
     1     1     2 1   
     2     1     6 1   
     3     1    24 1   
     4     1    25 1   
     5     2     3 1   
     6     2    26 1   
     7     2    27 1   
     8     3     4 1   
     9     3    28 1   
    10     4     5 1   
    11     4    29 1   
    12     4    30 1   
    13     5     6 1   
    14     5    31 1   
    15     5    32 1   
    16     6     7 1   
    17     6    21 1   
    18     7     8 1   
    19     7    33 1   
    20     8     9 2   
    21     8    10 1   
    22    10    11 1   
    23    10    20 2   
    24    11    12 1   
    25    11    13 1   
    26    12    34 1   
    27    12    35 1   
    28    12    36 1   
    29    13    14 ar  
    30    13    19 ar  
    31    14    15 ar  
    32    14    37 1   
    33    15    16 1   
    34    15    17 ar  
    35    17    18 ar  
    36    17    38 1   
    37    18    19 ar  
    38    18    39 1   
    39    19    20 1   
    40    20    21 1   
    41    21    22 1   
    42    21    40 1   
    43    22    23 3   
@<TRIPOS>SUBSTRUCTURE
     1 MB9         1 TEMP              0 ****  ****    0 ROOT
