@<TRIPOS>MOLECULE
MBA
   19    18     1     0     0
SMALL
bcc


@<TRIPOS>ATOM
      1 N            0.1110     0.3250    -2.4570 n8         1 MBA      -0.884800
      2 C1           0.6980    -0.2130    -1.2380 c3         1 MBA       0.151800
      3 C2          -0.0520     0.2290     0.0170 c3         1 MBA      -0.061700
      4 C5          -1.4930    -0.2740     0.0090 c3         1 MBA      -0.086100
      5 C3           0.7080    -0.2340     1.2610 c3         1 MBA      -0.073400
      6 C4           0.1580     0.3020     2.5760 c3         1 MBA      -0.087100
      7 HN1         -0.7520    -0.1610    -2.6660 hn         1 MBA       0.335300
      8 HN2          0.7220     0.1200    -3.2370 hn         1 MBA       0.335300
      9 H11          1.7260     0.1540    -1.1730 h1         1 MBA       0.024700
     10 H12          0.7670    -1.3120    -1.2340 h1         1 MBA       0.024700
     11 H2          -0.0670     1.3260     0.0170 hc         1 MBA       0.061700
     12 H2'1        -1.5230    -1.3670    -0.0160 hc         1 MBA       0.031700
     13 H2'2        -2.0410     0.0500     0.8940 hc         1 MBA       0.031700
     14 H2'3        -2.0470     0.0940    -0.8560 hc         1 MBA       0.031700
     15 H31          1.7540     0.0750     1.1640 hc         1 MBA       0.035200
     16 H32          0.7190    -1.3290     1.2900 hc         1 MBA       0.035200
     17 H41          0.7940     0.0090     3.4120 hc         1 MBA       0.031700
     18 H42          0.1070     1.3930     2.5680 hc         1 MBA       0.031700
     19 H43         -0.8450    -0.0720     2.7860 hc         1 MBA       0.031700
@<TRIPOS>BOND
     1     1     2 1   
     2     1     7 1   
     3     1     8 1   
     4     2     3 1   
     5     2     9 1   
     6     2    10 1   
     7     3     4 1   
     8     3     5 1   
     9     3    11 1   
    10     4    12 1   
    11     4    13 1   
    12     4    14 1   
    13     5     6 1   
    14     5    15 1   
    15     5    16 1   
    16     6    17 1   
    17     6    18 1   
    18     6    19 1   
@<TRIPOS>SUBSTRUCTURE
     1 MBA         1 TEMP              0 ****  ****    0 ROOT
