@<TRIPOS>MOLECULE
MBA
   19    18     1     0     0
SMALL
No Charge or Current Charge


@<TRIPOS>ATOM
      1 N            0.1640     0.3560    -2.5010 n8         1 MBA      -0.995200
      2 C1           0.7350    -0.2070    -1.2620 c3         1 MBA       0.151800
      3 C2          -0.0430     0.2230     0.0120 c3         1 MBA      -0.061700
      4 C5          -1.5100    -0.2870     0.0010 c3         1 MBA      -0.086100
      5 C3           0.7250    -0.2280     1.2870 c3         1 MBA      -0.073400
      6 C4           0.1470     0.3000     2.6180 c3         1 MBA      -0.087100
      7 HN1         -0.7880    -0.0090    -2.6210 hn         1 MBA       0.390500
      8 HN2          0.6740    -0.0260    -3.3070 hn         1 MBA       0.390500
      9 H11          1.7780     0.1310    -1.1870 h1         1 MBA       0.024700
     10 H12          0.7350    -1.3030    -1.3410 h1         1 MBA       0.024700
     11 H2          -0.0730     1.3200     0.0200 hc         1 MBA       0.061700
     12 H2'1        -1.5410    -1.3830     0.0290 hc         1 MBA       0.031700
     13 H2'2        -2.0690     0.0950     0.8620 hc         1 MBA       0.031700
     14 H2'3        -2.0410     0.0470    -0.8980 hc         1 MBA       0.031700
     15 H31          1.7650     0.1150     1.2120 hc         1 MBA       0.035200
     16 H32          0.7620    -1.3240     1.3240 hc         1 MBA       0.035200
     17 H41          0.8100     0.0330     3.4500 hc         1 MBA       0.031700
     18 H42          0.0520     1.3930     2.5950 hc         1 MBA       0.031700
     19 H43         -0.8380    -0.1330     2.8240 hc         1 MBA       0.031700
@<TRIPOS>BOND
     1     1     2 1   
     2     1     7 1   
     3     1     8 1   
     4     2     3 1   
     5     2     9 1   
     6     2    10 1   
     7     3     4 1   
     8     3     5 1   
     9     3    11 1   
    10     4    12 1   
    11     4    13 1   
    12     4    14 1   
    13     5     6 1   
    14     5    15 1   
    15     5    16 1   
    16     6    17 1   
    17     6    18 1   
    18     6    19 1   
@<TRIPOS>SUBSTRUCTURE
     1 MBA         1 TEMP              0 ****  ****    0 ROOT
