@<TRIPOS>MOLECULE
MBB
   66    71     1     0     0
SMALL
No Charge or Current Charge


@<TRIPOS>ATOM
      1 C            1.0410     0.1000    -8.2940 ca         1 MBB       0.365000
      2 C1           0.0330    -0.1220    -5.6370 ca         1 MBB      -0.191900
      3 C2          -0.2420     0.5690    -7.9730 ca         1 MBB      -0.208000
      4 C3          -0.7380     0.4650    -6.6660 ca         1 MBB      -0.048000
      5 C4           1.8170    -0.4760    -7.2750 ca         1 MBB      -0.212000
      6 C5           1.3380    -0.5910    -5.9550 ca         1 MBB       0.031700
      7 N            1.5410     0.2060    -9.6170 nh         1 MBB      -0.829400
      8 C6          -0.5290    -0.1520    -4.2740 cc         1 MBB       0.498400
      9 C7          -0.8130    -0.1100    -2.1270 ca         1 MBB       0.065400
     10 C8          -2.0600    -0.1760    -2.6690 ca         1 MBB      -0.071200
     11 C9          -3.2230    -0.2110    -1.8970 ca         1 MBB      -0.119000
     12 C10         -3.0770    -0.1750    -0.4950 ca         1 MBB      -0.088000
     13 C11         -1.7860    -0.1050     0.1020 ca         1 MBB      -0.148900
     14 C12         -0.6390    -0.0720    -0.7360 ca         1 MBB       0.004000
     15 N1           0.1650    -0.0860    -3.1170 nd         1 MBB      -0.574100
     16 N2          -1.8990    -0.1970    -4.0180 na         1 MBB      -0.314600
     17 C13         -1.6240    -0.0660     1.5620 cc         1 MBB       0.486400
     18 C14         -0.7900     0.0140     3.5560 ca         1 MBB       0.098400
     19 C15         -2.1420    -0.0440     3.7160 ca         1 MBB      -0.103200
     20 C16         -2.7590    -0.0480     4.9700 ca         1 MBB      -0.093000
     21 C17         -1.9210     0.0120     6.1030 ca         1 MBB      -0.141000
     22 C18         -0.5070     0.0750     5.9640 ca         1 MBB       0.261000
     23 N3          -0.4410    -0.0000     2.2090 nd         1 MBB      -0.585100
     24 N4          -2.6820    -0.0940     2.4690 na         1 MBB      -0.312600
     25 C19          0.0590     0.0740     4.6670 ca         1 MBB      -0.088000
     26 N5           0.3390     0.1340     7.1010 nh         1 MBB      -0.788400
     27 N6           2.0450     0.4120     9.5390 n3         1 MBB      -0.717600
     28 C20         -0.0990    -0.4080     8.4290 c6         1 MBB       0.194300
     29 C21          1.1040    -0.7370     9.3730 c6         1 MBB       0.159800
     30 C22          2.5200     0.8730     8.1990 c6         1 MBB       0.159800
     31 C23          1.3470     1.2370     7.2290 c6         1 MBB       0.194300
     32 C24          3.1570     0.1110    10.4660 c3         1 MBB       0.154100
     33 CN1          2.5190    -0.7700   -10.1550 c3         1 MBB       0.221100
     34 CN2          1.1040     1.2930   -10.5250 c3         1 MBB       0.221100
     35 C25          2.2470    -1.2640    -4.9280 c3         1 MBB      -0.052800
     36 H2          -0.8700     1.0160    -8.7370 ha         1 MBB       0.114000
     37 H3          -1.7300     0.8600    -6.4570 ha         1 MBB       0.100000
     38 H4           2.8160    -0.8330    -7.5050 ha         1 MBB       0.114000
     39 H9          -4.2070    -0.2640    -2.3590 ha         1 MBB       0.118000
     40 H10         -3.9740    -0.2020     0.1200 ha         1 MBB       0.103000
     41 H12          0.3650    -0.0180    -0.3210 ha         1 MBB       0.155000
     42 HN2         -2.6250    -0.2540    -4.7180 hn         1 MBB       0.356000
     43 H16         -3.8410    -0.0930     5.0700 ha         1 MBB       0.114000
     44 H17         -2.3770     0.0210     7.0890 ha         1 MBB       0.112000
     45 HN4         -3.6630    -0.1430     2.2300 hn         1 MBB       0.354000
     46 H19          1.1350     0.1060     4.5300 ha         1 MBB       0.133000
     47 H201        -0.6860    -1.3270     8.2890 h1         1 MBB       0.042700
     48 H202        -0.7480     0.3240     8.9310 h1         1 MBB       0.042700
     49 H211         1.6410    -1.6040     8.9590 h1         1 MBB       0.038200
     50 H212         0.7050    -1.0470    10.3500 h1         1 MBB       0.038200
     51 H221         3.1680     1.7550     8.3070 h1         1 MBB       0.038200
     52 H222         3.1280     0.0870     7.7260 h1         1 MBB       0.038200
     53 H231         1.7770     1.4900     6.2500 h1         1 MBB       0.042700
     54 H232         0.8500     2.1430     7.6060 h1         1 MBB       0.042700
     55 H241         3.8000     0.9910    10.5990 h1         1 MBB       0.030367
     56 H242         2.7710    -0.1790    11.4520 h1         1 MBB       0.030367
     57 H243         3.7750    -0.7130    10.0820 h1         1 MBB       0.030367
     58 HN11         2.4480    -0.8300   -11.2500 h1         1 MBB       0.037533
     59 HN12         3.5430    -0.4770    -9.8880 h1         1 MBB       0.037533
     60 HN13         2.3230    -1.7740    -9.7560 h1         1 MBB       0.037533
     61 HN21         0.9370     2.2220    -9.9630 h1         1 MBB       0.037533
     62 HN22         1.8700     1.4990   -11.2850 h1         1 MBB       0.037533
     63 HN23         0.1720     1.0160   -11.0360 h1         1 MBB       0.037533
     64 H251         2.6650    -0.5300    -4.2300 hc         1 MBB       0.052700
     65 H252         1.7050    -2.0220    -4.3510 hc         1 MBB       0.052700
     66 H253         3.0920    -1.7740    -5.4050 hc         1 MBB       0.052700
@<TRIPOS>BOND
     1     1     3 ar  
     2     1     5 ar  
     3     1     7 1   
     4     2     4 ar  
     5     2     6 ar  
     6     2     8 1   
     7     3     4 ar  
     8     3    36 1   
     9     4    37 1   
    10     5     6 ar  
    11     5    38 1   
    12     6    35 1   
    13     7    33 1   
    14     7    34 1   
    15     8    15 2   
    16     8    16 1   
    17     9    10 ar  
    18     9    14 ar  
    19     9    15 1   
    20    10    11 ar  
    21    10    16 1   
    22    11    12 ar  
    23    11    39 1   
    24    12    13 ar  
    25    12    40 1   
    26    13    14 ar  
    27    13    17 1   
    28    14    41 1   
    29    16    42 1   
    30    17    23 2   
    31    17    24 1   
    32    18    19 ar  
    33    18    23 1   
    34    18    25 ar  
    35    19    20 ar  
    36    19    24 1   
    37    20    21 ar  
    38    20    43 1   
    39    21    22 ar  
    40    21    44 1   
    41    22    25 ar  
    42    22    26 1   
    43    24    45 1   
    44    25    46 1   
    45    26    28 1   
    46    26    31 1   
    47    27    29 1   
    48    27    30 1   
    49    27    32 1   
    50    28    29 1   
    51    28    47 1   
    52    28    48 1   
    53    29    49 1   
    54    29    50 1   
    55    30    31 1   
    56    30    51 1   
    57    30    52 1   
    58    31    53 1   
    59    31    54 1   
    60    32    55 1   
    61    32    56 1   
    62    32    57 1   
    63    33    58 1   
    64    33    59 1   
    65    33    60 1   
    66    34    61 1   
    67    34    62 1   
    68    34    63 1   
    69    35    64 1   
    70    35    65 1   
    71    35    66 1   
@<TRIPOS>SUBSTRUCTURE
     1 MBB         1 TEMP              0 ****  ****    0 ROOT
