@<TRIPOS>MOLECULE
MBB
   66    71     1     0     0
SMALL
bcc


@<TRIPOS>ATOM
      1 C            1.0380     0.0710    -8.2170 ca         1 MBB       0.226600
      2 C1           0.0530     0.0130    -5.5530 ca         1 MBB      -0.191900
      3 C2          -0.1550     0.7330    -7.8700 ca         1 MBB      -0.226000
      4 C3          -0.6200     0.6920    -6.5740 ca         1 MBB      -0.066000
      5 C4           1.7100    -0.6160    -7.1860 ca         1 MBB      -0.230000
      6 C5           1.2500    -0.6540    -5.8790 ca         1 MBB       0.031700
      7 N            1.5220     0.0920    -9.4860 nh         1 MBB      -0.691000
      8 C6          -0.5020     0.0260    -4.2070 cc         1 MBB       0.498400
      9 C7          -0.7710     0.0150    -2.0860 ca         1 MBB       0.065400
     10 C8          -2.0550     0.1510    -2.6420 ca         1 MBB      -0.071200
     11 C9          -3.1960     0.2410    -1.8550 ca         1 MBB      -0.137000
     12 C10         -3.0190     0.1890    -0.4850 ca         1 MBB      -0.106000
     13 C11         -1.7430     0.0510     0.0950 ca         1 MBB      -0.148900
     14 C12         -0.6090    -0.0320    -0.7080 ca         1 MBB      -0.014000
     15 N1           0.1670    -0.0570    -3.0830 nd         1 MBB      -0.574100
     16 N2          -1.8480     0.1580    -3.9890 na         1 MBB      -0.264300
     17 C13         -1.5750    -0.0020     1.5450 cc         1 MBB       0.486400
     18 C14         -0.7100     0.0160     3.4990 ca         1 MBB       0.098400
     19 C15         -2.0830    -0.2210     3.6770 ca         1 MBB      -0.103200
     20 C16         -2.6300    -0.4050     4.9360 ca         1 MBB      -0.111000
     21 C17         -1.7700    -0.3340     6.0220 ca         1 MBB      -0.159000
     22 C18         -0.3860    -0.1050     5.8730 ca         1 MBB       0.122600
     23 N3          -0.4290     0.1470     2.1630 nd         1 MBB      -0.585100
     24 N4          -2.6040    -0.2200     2.4080 na         1 MBB      -0.262300
     25 C19          0.1440     0.0640     4.5940 ca         1 MBB      -0.106000
     26 N5           0.4820    -0.0650     6.9760 nh         1 MBB      -0.650000
     27 N6           1.9250     0.4540     9.3730 n3         1 MBB      -0.717600
     28 C20         -0.0130    -0.5330     8.2530 c6         1 MBB       0.194300
     29 C21          1.1490    -0.7560     9.2060 c6         1 MBB       0.159800
     30 C22          2.4220     0.9090     8.0920 c6         1 MBB       0.159800
     31 C23          1.2750     1.1450     7.1290 c6         1 MBB       0.194300
     32 C24          2.9880     0.2840    10.3350 c3         1 MBB       0.154100
     33 CN1          2.7620    -0.5770    -9.8030 c3         1 MBB       0.221100
     34 CN2          0.8100     0.8090   -10.5190 c3         1 MBB       0.221100
     35 C25          2.0510    -1.4310    -4.8740 c3         1 MBB      -0.052800
     36 H2          -0.7200     1.2910    -8.6040 ha         1 MBB       0.132000
     37 H3          -1.5310     1.2350    -6.3530 ha         1 MBB       0.118000
     38 H4           2.6260    -1.1470    -7.4060 ha         1 MBB       0.132000
     39 H9          -4.1830     0.3520    -2.2850 ha         1 MBB       0.136000
     40 H10         -3.8960     0.2750     0.1420 ha         1 MBB       0.121000
     41 H12          0.3730    -0.1410    -0.2670 ha         1 MBB       0.173000
     42 HN2         -2.5650     0.1740    -4.6960 hn         1 MBB       0.305700
     43 H16         -3.6870    -0.5850     5.0820 ha         1 MBB       0.132000
     44 H17         -2.1930    -0.4530     7.0100 ha         1 MBB       0.130000
     45 HN4         -3.5610    -0.4160     2.1660 hn         1 MBB       0.303700
     46 H19          1.2070     0.2150     4.4480 ha         1 MBB       0.151000
     47 H201        -0.5320    -1.4840     8.1180 h1         1 MBB       0.042700
     48 H202        -0.7260     0.1720     8.7090 h1         1 MBB       0.042700
     49 H211         1.7640    -1.5890     8.8250 h1         1 MBB       0.038200
     50 H212         0.7530    -1.0650    10.1770 h1         1 MBB       0.038200
     51 H221         2.9640     1.8480     8.2290 h1         1 MBB       0.038200
     52 H222         3.1270     0.1880     7.6430 h1         1 MBB       0.038200
     53 H231         1.6830     1.4500     6.1660 h1         1 MBB       0.042700
     54 H232         0.6560     1.9760     7.5010 h1         1 MBB       0.042700
     55 H241         3.5280     1.2240    10.4630 h1         1 MBB       0.030367
     56 H242         2.5750     0.0030    11.3050 h1         1 MBB       0.030367
     57 H243         3.7210    -0.4860    10.0470 h1         1 MBB       0.030367
     58 HN11         2.9870    -0.4360   -10.8560 h1         1 MBB       0.037533
     59 HN12         3.6030    -0.1810    -9.2280 h1         1 MBB       0.037533
     60 HN13         2.7080    -1.6540    -9.6200 h1         1 MBB       0.037533
     61 HN21         0.7350     1.8780   -10.3020 h1         1 MBB       0.037533
     62 HN22         1.3390     0.7010   -11.4620 h1         1 MBB       0.037533
     63 HN23        -0.2030     0.4240   -10.6620 h1         1 MBB       0.037533
     64 H251         2.5380    -0.7730    -4.1550 hc         1 MBB       0.052700
     65 H252         1.4280    -2.1140    -4.2970 hc         1 MBB       0.052700
     66 H253         2.8220    -2.0150    -5.3750 hc         1 MBB       0.052700
@<TRIPOS>BOND
     1     1     3 ar  
     2     1     5 ar  
     3     1     7 1   
     4     2     4 ar  
     5     2     6 ar  
     6     2     8 1   
     7     3     4 ar  
     8     3    36 1   
     9     4    37 1   
    10     5     6 ar  
    11     5    38 1   
    12     6    35 1   
    13     7    33 1   
    14     7    34 1   
    15     8    15 2   
    16     8    16 1   
    17     9    10 ar  
    18     9    14 ar  
    19     9    15 1   
    20    10    11 ar  
    21    10    16 1   
    22    11    12 ar  
    23    11    39 1   
    24    12    13 ar  
    25    12    40 1   
    26    13    14 ar  
    27    13    17 1   
    28    14    41 1   
    29    16    42 1   
    30    17    23 2   
    31    17    24 1   
    32    18    19 ar  
    33    18    23 1   
    34    18    25 ar  
    35    19    20 ar  
    36    19    24 1   
    37    20    21 ar  
    38    20    43 1   
    39    21    22 ar  
    40    21    44 1   
    41    22    25 ar  
    42    22    26 1   
    43    24    45 1   
    44    25    46 1   
    45    26    28 1   
    46    26    31 1   
    47    27    29 1   
    48    27    30 1   
    49    27    32 1   
    50    28    29 1   
    51    28    47 1   
    52    28    48 1   
    53    29    49 1   
    54    29    50 1   
    55    30    31 1   
    56    30    51 1   
    57    30    52 1   
    58    31    53 1   
    59    31    54 1   
    60    32    55 1   
    61    32    56 1   
    62    32    57 1   
    63    33    58 1   
    64    33    59 1   
    65    33    60 1   
    66    34    61 1   
    67    34    62 1   
    68    34    63 1   
    69    35    64 1   
    70    35    65 1   
    71    35    66 1   
@<TRIPOS>SUBSTRUCTURE
     1 MBB         1 TEMP              0 ****  ****    0 ROOT
