@<TRIPOS>MOLECULE
MBC
   42    45     1     0     0
SMALL
No Charge or Current Charge


@<TRIPOS>ATOM
      1 C1           1.9820    -2.2510     8.3990 cc         1 MBC      -0.169000
      2 C2           1.3830    -1.6880     7.2530 cc         1 MBC      -0.114000
      3 C3           2.2270    -1.9830     6.2160 cd         1 MBC       0.106700
      4 O4           3.3330    -2.7000     6.6180 os         1 MBC      -0.248000
      5 C5           3.1440    -2.8460     7.9760 cd         1 MBC       0.201500
      6 C6           4.1660    -3.5850     8.7450 ca         1 MBC      -0.112500
      7 C7           1.9940    -1.5890     4.8470 cd         1 MBC       0.381800
      8 C8           4.0230    -3.7670    10.1350 ca         1 MBC      -0.092500
      9 C9           4.9930    -4.4680    10.8730 ca         1 MBC      -0.088500
     10 C10          6.1420    -4.9970    10.2420 ca         1 MBC      -0.186900
     11 C11          6.2720    -4.8300     8.8440 ca         1 MBC      -0.088500
     12 C12          5.3020    -4.1280     8.1080 ca         1 MBC      -0.092500
     13 N13          2.9030    -1.9280     3.8360 na         1 MBC      -0.299600
     14 C14          2.3400    -1.3890     2.7140 ca         1 MBC      -0.065200
     15 C15          1.1710    -0.7760     3.0630 ca         1 MBC       0.065400
     16 N16          0.9220    -0.8870     4.4210 nc         1 MBC      -0.555100
     17 C17          0.3820    -0.1370     2.0940 ca         1 MBC      -0.027000
     18 C18          0.8200    -0.1220     0.7410 ca         1 MBC      -0.218900
     19 C19          2.0340    -0.7860     0.4050 ca         1 MBC      -0.067000
     20 C20          2.8080    -1.4210     1.3970 ca         1 MBC      -0.119000
     21 C21         -0.0170     0.5130    -0.3170 ce         1 MBC       0.662800
     22 C22          7.1540    -5.7780    11.0200 ce         1 MBC       0.659800
     23 N23          7.9290    -6.6350    10.4970 n2         1 MBC      -0.839100
     24 N24          7.3560    -5.4440    12.3060 nv         1 MBC      -1.032200
     25 N25         -1.2670     0.6930    -0.2070 n2         1 MBC      -0.844100
     26 N26          0.6150     1.0730    -1.3610 nv         1 MBC      -1.033200
     27 H1           1.5840    -2.2090     9.4070 ha         1 MBC       0.148000
     28 H2           0.4480    -1.1370     7.2150 ha         1 MBC       0.163000
     29 H8           3.1550    -3.3720    10.6570 ha         1 MBC       0.122000
     30 H9           4.8370    -4.6060    11.9410 ha         1 MBC       0.125000
     31 H11          7.1370    -5.2280     8.3160 ha         1 MBC       0.125000
     32 H12          5.4420    -4.0100     7.0360 ha         1 MBC       0.122000
     33 HN13         3.7650    -2.4480     3.9370 hn         1 MBC       0.369000
     34 H17         -0.5420     0.3490     2.3970 ha         1 MBC       0.136000
     35 H19          2.3760    -0.8220    -0.6280 ha         1 MBC       0.127000
     36 H20          3.7370    -1.9260     1.1420 ha         1 MBC       0.123000
     37 HN23         7.6040    -6.8060     9.5370 hn         1 MBC       0.389400
     38 H241         8.2460    -5.7600    12.6710 hn         1 MBC       0.470000
     39 H242         7.0820    -4.5030    12.5610 hn         1 MBC       0.470000
     40 HN25        -1.5950     0.1400     0.5950 hn         1 MBC       0.390400
     41 H261         0.0550     1.7610    -1.8500 hn         1 MBC       0.467500
     42 H262         1.5830     1.3230    -1.2010 hn         1 MBC       0.467500
@<TRIPOS>BOND
     1     1     2 1   
     2     1     5 2   
     3     1    27 1   
     4     2     3 2   
     5     2    28 1   
     6     3     4 1   
     7     3     7 1   
     8     4     5 1   
     9     5     6 1   
    10     6     8 ar  
    11     6    12 ar  
    12     7    13 1   
    13     7    16 2   
    14     8     9 ar  
    15     8    29 1   
    16     9    10 ar  
    17     9    30 1   
    18    10    11 ar  
    19    10    22 1   
    20    11    12 ar  
    21    11    31 1   
    22    12    32 1   
    23    13    14 1   
    24    13    33 1   
    25    14    15 ar  
    26    14    20 ar  
    27    15    16 1   
    28    15    17 ar  
    29    17    18 ar  
    30    17    34 1   
    31    18    19 ar  
    32    18    21 1   
    33    19    20 ar  
    34    19    35 1   
    35    20    36 1   
    36    21    25 2   
    37    21    26 1   
    38    22    23 2   
    39    22    24 1   
    40    23    37 1   
    41    24    38 1   
    42    24    39 1   
    43    25    40 1   
    44    26    41 1   
    45    26    42 1   
@<TRIPOS>SUBSTRUCTURE
     1 MBC         1 TEMP              0 ****  ****    0 ROOT
