@<TRIPOS>MOLECULE
MBC
   42    45     1     0     0
SMALL
bcc


@<TRIPOS>ATOM
      1 C1           1.8560    -2.1830     8.5820 cc         1 MBC      -0.252300
      2 C2           1.2080    -1.5960     7.4690 cc         1 MBC      -0.197300
      3 C3           2.0030    -1.8520     6.3940 cd         1 MBC       0.216400
      4 O4           3.0870    -2.5540     6.7790 os         1 MBC      -0.336800
      5 C5           3.0010    -2.7590     8.1100 cd         1 MBC       0.311200
      6 C6           4.0680    -3.5050     8.7480 ca         1 MBC      -0.112500
      7 C7           1.8790    -1.5180     5.0010 cd         1 MBC       0.381800
      8 C8           4.0110    -3.7630    10.1200 ca         1 MBC      -0.110500
      9 C9           5.0200    -4.4700    10.7480 ca         1 MBC      -0.106500
     10 C10          6.1090    -4.9530    10.0230 ca         1 MBC      -0.186900
     11 C11          6.1640    -4.6980     8.6550 ca         1 MBC      -0.106500
     12 C12          5.1650    -3.9800     8.0230 ca         1 MBC      -0.110500
     13 N13          2.8210    -1.8560     4.0770 na         1 MBC      -0.249300
     14 C14          2.3820    -1.3900     2.8710 ca         1 MBC      -0.065200
     15 C15          1.1490    -0.7730     3.1510 ca         1 MBC       0.065400
     16 N16          0.8670    -0.8680     4.4880 nc         1 MBC      -0.555100
     17 C17          0.4150    -0.1880     2.1240 ca         1 MBC      -0.045000
     18 C18          0.9350    -0.2230     0.8380 ca         1 MBC      -0.218900
     19 C19          2.1770    -0.8380     0.5860 ca         1 MBC      -0.085000
     20 C20          2.9160    -1.4340     1.5900 ca         1 MBC      -0.137000
     21 C21          0.1530     0.3780    -0.2800 ce         1 MBC       0.662800
     22 C22          7.1870    -5.7430    10.6790 ce         1 MBC       0.659800
     23 N23          7.7970    -6.7260    10.1350 n2         1 MBC      -0.839100
     24 N24          7.4670    -5.3760    11.9610 nv         1 MBC      -0.921800
     25 N25         -1.1220     0.3670    -0.3660 n2         1 MBC      -0.844100
     26 N26          0.9050     0.9310    -1.2750 nv         1 MBC      -0.922800
     27 H1           1.5110    -2.1750     9.6020 ha         1 MBC       0.166000
     28 H2           0.2770    -1.0520     7.4620 ha         1 MBC       0.181000
     29 H8           3.1720    -3.4130    10.7070 ha         1 MBC       0.140000
     30 H9           4.9420    -4.6620    11.8100 ha         1 MBC       0.143000
     31 H11          7.0080    -5.0440     8.0720 ha         1 MBC       0.143000
     32 H12          5.2500    -3.7910     6.9620 ha         1 MBC       0.140000
     33 HN13         3.6780    -2.3590     4.2480 hn         1 MBC       0.318700
     34 H17         -0.5290     0.2980     2.3390 ha         1 MBC       0.154000
     35 H19          2.5580    -0.8690    -0.4260 ha         1 MBC       0.145000
     36 H20          3.8620    -1.9140     1.3780 ha         1 MBC       0.141000
     37 HN23         7.3990    -6.9400     9.2280 hn         1 MBC       0.389400
     38 H241         8.2700    -5.8160    12.3830 hn         1 MBC       0.414800
     39 H242         7.3400    -4.4120    12.2210 hn         1 MBC       0.414800
     40 HN25        -1.5270    -0.1740     0.3890 hn         1 MBC       0.390400
     41 H261         0.3980     1.4480    -1.9760 hn         1 MBC       0.412300
     42 H262         1.7950     1.3330    -1.0320 hn         1 MBC       0.412300
@<TRIPOS>BOND
     1     1     2 1   
     2     1     5 2   
     3     1    27 1   
     4     2     3 2   
     5     2    28 1   
     6     3     4 1   
     7     3     7 1   
     8     4     5 1   
     9     5     6 1   
    10     6     8 ar  
    11     6    12 ar  
    12     7    13 1   
    13     7    16 2   
    14     8     9 ar  
    15     8    29 1   
    16     9    10 ar  
    17     9    30 1   
    18    10    11 ar  
    19    10    22 1   
    20    11    12 ar  
    21    11    31 1   
    22    12    32 1   
    23    13    14 1   
    24    13    33 1   
    25    14    15 ar  
    26    14    20 ar  
    27    15    16 1   
    28    15    17 ar  
    29    17    18 ar  
    30    17    34 1   
    31    18    19 ar  
    32    18    21 1   
    33    19    20 ar  
    34    19    35 1   
    35    20    36 1   
    36    21    25 2   
    37    21    26 1   
    38    22    23 2   
    39    22    24 1   
    40    23    37 1   
    41    24    38 1   
    42    24    39 1   
    43    25    40 1   
    44    26    41 1   
    45    26    42 1   
@<TRIPOS>SUBSTRUCTURE
     1 MBC         1 TEMP              0 ****  ****    0 ROOT
