@<TRIPOS>MOLECULE
MBD
   17    17     1     0     0
SMALL
bcc


@<TRIPOS>ATOM
      1 CA1          0.1160    -0.0990    -1.2530 ca         1 MBD       0.123100
      2 OA1         -0.5240    -0.1350    -2.4430 oh         1 MBD      -0.497100
      3 CA2         -0.5930    -0.1160    -0.0460 ca         1 MBD       0.041100
      4 OA2         -1.9460    -0.1530    -0.1610 oh         1 MBD      -0.526100
      5 CA3          0.0760    -0.0830     1.1750 ca         1 MBD      -0.118300
      6 CB3         -0.7000    -0.0990     2.4610 c3         1 MBD      -0.052800
      7 CA4          1.4690    -0.0330     1.1700 ca         1 MBD      -0.131000
      8 CA5          2.1760    -0.0110    -0.0220 ca         1 MBD      -0.120000
      9 CA6          1.5010    -0.0430    -1.2350 ca         1 MBD      -0.142000
     10 HA1         -1.4760    -0.2160    -2.3070 ho         1 MBD       0.442000
     11 HA2         -2.3640    -0.3910     0.6730 ho         1 MBD       0.435000
     12 HB31        -1.3890     0.7450     2.5350 hc         1 MBD       0.043367
     13 HB32        -1.2880    -1.0130     2.5770 hc         1 MBD       0.043367
     14 HB33        -0.0280    -0.0450     3.3160 hc         1 MBD       0.043367
     15 HA4          1.9980    -0.0060     2.1150 ha         1 MBD       0.132000
     16 HA5          3.2570     0.0290    -0.0110 ha         1 MBD       0.135000
     17 HA6          2.0440    -0.0310    -2.1720 ha         1 MBD       0.148000
@<TRIPOS>BOND
     1     1     2 1   
     2     1     3 ar  
     3     1     9 ar  
     4     2    10 1   
     5     3     4 1   
     6     3     5 ar  
     7     4    11 1   
     8     5     6 1   
     9     5     7 ar  
    10     6    12 1   
    11     6    13 1   
    12     6    14 1   
    13     7     8 ar  
    14     7    15 1   
    15     8     9 ar  
    16     8    16 1   
    17     9    17 1   
@<TRIPOS>SUBSTRUCTURE
     1 MBD         1 TEMP              0 ****  ****    0 ROOT
