@<TRIPOS>MOLECULE
MBD
   17    17     1     0     0
SMALL
No Charge or Current Charge


@<TRIPOS>ATOM
      1 CA1          0.1280    -0.1180    -1.2920 ca         1 MBD       0.123100
      2 OA1         -0.5310    -0.1650    -2.4860 oh         1 MBD      -0.536100
      3 CA2         -0.6140    -0.1440    -0.0920 ca         1 MBD       0.041100
      4 OA2         -1.9830    -0.2150    -0.1530 oh         1 MBD      -0.565100
      5 CA3          0.0540    -0.0960     1.1530 ca         1 MBD      -0.118300
      6 CB3         -0.7150    -0.1220     2.4710 c3         1 MBD      -0.052800
      7 CA4          1.4630    -0.0230     1.1720 ca         1 MBD      -0.113000
      8 CA5          2.1970     0.0020    -0.0270 ca         1 MBD      -0.102000
      9 CA6          1.5280    -0.0450    -1.2620 ca         1 MBD      -0.124000
     10 HA1         -1.4870    -0.2120    -2.2580 ho         1 MBD       0.481000
     11 HA2         -2.3370    -0.2240     0.7630 ho         1 MBD       0.474000
     12 HB31        -1.3980     0.7330     2.5490 hc         1 MBD       0.043367
     13 HB32        -1.3060    -1.0410     2.5680 hc         1 MBD       0.043367
     14 HB33        -0.0420    -0.0780     3.3350 hc         1 MBD       0.043367
     15 HA4          1.9950     0.0140     2.1200 ha         1 MBD       0.114000
     16 HA5          3.2830     0.0590     0.0010 ha         1 MBD       0.117000
     17 HA6          2.0940    -0.0260    -2.1900 ha         1 MBD       0.130000
@<TRIPOS>BOND
     1     1     2 1   
     2     1     3 ar  
     3     1     9 ar  
     4     2    10 1   
     5     3     4 1   
     6     3     5 ar  
     7     4    11 1   
     8     5     6 1   
     9     5     7 ar  
    10     6    12 1   
    11     6    13 1   
    12     6    14 1   
    13     7     8 ar  
    14     7    15 1   
    15     8     9 ar  
    16     8    16 1   
    17     9    17 1   
@<TRIPOS>SUBSTRUCTURE
     1 MBD         1 TEMP              0 ****  ****    0 ROOT
