@<TRIPOS>MOLECULE
MBE
   36    37     1     0     0
SMALL
No Charge or Current Charge


@<TRIPOS>ATOM
      1 C1           1.1590     0.7210    -0.4500 c6         1 MBE       0.359300
      2 C2           2.4610     1.5950    -0.4050 c6         1 MBE       0.129300
      3 C3           3.6720     0.7170    -0.8370 c6         1 MBE       0.140300
      4 C4           3.7520    -0.5870     0.0180 c6         1 MBE       0.143300
      5 C5           2.3800    -1.3320    -0.0320 c6         1 MBE       0.180300
      6 C6           2.3530    -2.6020     0.8820 c3         1 MBE       0.171600
      7 C7          -1.2500     1.0240    -0.0410 ca         1 MBE       0.194100
      8 C8          -2.2620     1.8310     0.4970 ca         1 MBE      -0.176000
      9 C9          -3.6080     1.4280     0.4450 ca         1 MBE      -0.009000
     10 C10         -3.9570     0.1980    -0.1560 ca         1 MBE      -0.221200
     11 C11         -2.9370    -0.6160    -0.7010 ca         1 MBE      -0.009000
     12 C12         -1.5940    -0.2050    -0.6460 ca         1 MBE      -0.176000
     13 N1          -5.3890    -0.2390    -0.2140 no         1 MBE       0.701200
     14 O1           0.0470     1.4930     0.0400 os         1 MBE      -0.337100
     15 O2           2.7040     2.1580     0.9090 oh         1 MBE      -0.685000
     16 O3           4.8900     1.4710    -0.7120 oh         1 MBE      -0.642000
     17 O4           4.8370    -1.4140    -0.4530 oh         1 MBE      -0.722000
     18 O5           1.3220    -0.4360     0.3970 os         1 MBE      -0.450000
     19 O6           1.0790    -3.2820     0.8810 oh         1 MBE      -0.718000
     20 O7          -5.6490    -1.3230    -0.7520 o          1 MBE      -0.405500
     21 O8          -6.2480     0.5050     0.2770 o          1 MBE      -0.405500
     22 H1           0.9670     0.4080    -1.4870 h2         1 MBE       0.038700
     23 H2           2.3430     2.4060    -1.1390 h1         1 MBE       0.043700
     24 H3           3.5240     0.4280    -1.8880 h1         1 MBE       0.040700
     25 H4           3.9330    -0.2980     1.0650 h1         1 MBE       0.079700
     26 H5           2.1760    -1.6510    -1.0650 h1         1 MBE       0.054700
     27 H6           3.1420    -3.2860     0.5400 h1         1 MBE       0.042700
     28 H7           2.6150    -2.2910     1.9020 h1         1 MBE       0.042700
     29 H8          -2.0010     2.7790     0.9590 ha         1 MBE       0.143000
     30 H9          -4.3690     2.0790     0.8730 ha         1 MBE       0.152000
     31 H10         -3.1750    -1.5700    -1.1700 ha         1 MBE       0.152000
     32 H11         -0.8380    -0.8570    -1.0720 ha         1 MBE       0.143000
     33 H12          1.8150     2.3070     1.3110 ho         1 MBE       0.518000
     34 H13          4.7150     2.0960     0.0310 ho         1 MBE       0.451000
     35 H14          5.5680    -0.7840    -0.6700 ho         1 MBE       0.526000
     36 H15          1.1450    -4.0180     1.5340 ho         1 MBE       0.509000
@<TRIPOS>BOND
     1     1     2 1   
     2     1    14 1   
     3     1    18 1   
     4     1    22 1   
     5     2     3 1   
     6     2    15 1   
     7     2    23 1   
     8     3     4 1   
     9     3    16 1   
    10     3    24 1   
    11     4     5 1   
    12     4    17 1   
    13     4    25 1   
    14     5     6 1   
    15     5    18 1   
    16     5    26 1   
    17     6    19 1   
    18     6    27 1   
    19     6    28 1   
    20     7     8 ar  
    21     7    12 ar  
    22     7    14 1   
    23     8     9 ar  
    24     8    29 1   
    25     9    10 ar  
    26     9    30 1   
    27    10    11 ar  
    28    10    13 1   
    29    11    12 ar  
    30    11    31 1   
    31    12    32 1   
    32    13    20 1   
    33    13    21 1   
    34    15    33 1   
    35    16    34 1   
    36    17    35 1   
    37    19    36 1   
@<TRIPOS>SUBSTRUCTURE
     1 MBE         1 TEMP              0 ****  ****    0 ROOT
