@<TRIPOS>MOLECULE
MBE
   36    37     1     0     0
SMALL
bcc


@<TRIPOS>ATOM
      1 C1           1.1280     0.6820    -0.2740 c6         1 MBE       0.312900
      2 C2           2.3550     1.5890    -0.2000 c6         1 MBE       0.106100
      3 C3           3.5460     0.7700    -0.7010 c6         1 MBE       0.117100
      4 C4           3.6740    -0.5500     0.0570 c6         1 MBE       0.120100
      5 C5           2.3410    -1.2980    -0.0070 c6         1 MBE       0.157100
      6 C6           2.3450    -2.5670     0.8160 c3         1 MBE       0.148400
      7 C7          -1.2080     0.9230     0.0960 ca         1 MBE       0.194100
      8 C8          -2.2230     1.7750     0.5390 ca         1 MBE      -0.194000
      9 C9          -3.5450     1.4170     0.4010 ca         1 MBE      -0.027000
     10 C10         -3.8600     0.1970    -0.1870 ca         1 MBE      -0.221200
     11 C11         -2.8610    -0.6610    -0.6250 ca         1 MBE      -0.027000
     12 C12         -1.5330    -0.3070    -0.4790 ca         1 MBE      -0.194000
     13 N1          -5.2460    -0.1850    -0.3390 no         1 MBE       0.321200
     14 O1           0.0440     1.3800     0.2650 os         1 MBE      -0.313900
     15 O2           2.6120     2.0080     1.1110 oh         1 MBE      -0.562800
     16 O3           4.7640     1.4580    -0.5700 oh         1 MBE      -0.579800
     17 O4           4.6570    -1.3710    -0.5230 oh         1 MBE      -0.599800
     18 O5           1.3120    -0.4650     0.4930 os         1 MBE      -0.403600
     19 O6           1.1190    -3.2300     0.6200 oh         1 MBE      -0.595800
     20 O7          -5.4930    -1.2540    -0.8500 o          1 MBE      -0.215500
     21 O8          -6.0960     0.5830     0.0520 o          1 MBE      -0.215500
     22 H1           0.9290     0.4200    -1.3280 h2         1 MBE       0.038700
     23 H2           2.2000     2.4390    -0.8790 h1         1 MBE       0.043700
     24 H3           3.3480     0.5260    -1.7560 h1         1 MBE       0.040700
     25 H4           3.9060    -0.3400     1.1110 h1         1 MBE       0.079700
     26 H5           2.1340    -1.5580    -1.0580 h1         1 MBE       0.054700
     27 H6           3.1940    -3.1810     0.4990 h1         1 MBE       0.042700
     28 H7           2.5080    -2.3090     1.8720 h1         1 MBE       0.042700
     29 H8          -1.9620     2.7240     0.9880 ha         1 MBE       0.161000
     30 H9          -4.3170     2.0900     0.7450 ha         1 MBE       0.170000
     31 H10         -3.1030    -1.6140    -1.0740 ha         1 MBE       0.170000
     32 H11         -0.7770    -1.0070    -0.8000 ha         1 MBE       0.161000
     33 H12          1.9360     2.6410     1.3720 ho         1 MBE       0.419000
     34 H13          4.8460     2.0880    -1.2920 ho         1 MBE       0.412000
     35 H14          5.4910    -0.8890    -0.5120 ho         1 MBE       0.427000
     36 H15          1.1580    -4.0700     1.0860 ho         1 MBE       0.410000
@<TRIPOS>BOND
     1     1     2 1   
     2     1    14 1   
     3     1    18 1   
     4     1    22 1   
     5     2     3 1   
     6     2    15 1   
     7     2    23 1   
     8     3     4 1   
     9     3    16 1   
    10     3    24 1   
    11     4     5 1   
    12     4    17 1   
    13     4    25 1   
    14     5     6 1   
    15     5    18 1   
    16     5    26 1   
    17     6    19 1   
    18     6    27 1   
    19     6    28 1   
    20     7     8 ar  
    21     7    12 ar  
    22     7    14 1   
    23     8     9 ar  
    24     8    29 1   
    25     9    10 ar  
    26     9    30 1   
    27    10    11 ar  
    28    10    13 1   
    29    11    12 ar  
    30    11    31 1   
    31    12    32 1   
    32    13    20 1   
    33    13    21 1   
    34    15    33 1   
    35    16    34 1   
    36    17    35 1   
    37    19    36 1   
@<TRIPOS>SUBSTRUCTURE
     1 MBE         1 TEMP              0 ****  ****    0 ROOT
