@<TRIPOS>MOLECULE
MBF
   23    23     1     0     0
SMALL
No Charge or Current Charge


@<TRIPOS>ATOM
      1 O1          -2.8240    -0.5070    -0.7260 oh         1 MBF      -0.624000
      2 C1          -1.4600    -0.8070    -0.4780 c6         1 MBF       0.375300
      3 C2          -0.5360    -0.3210    -1.6420 c6         1 MBF       0.146300
      4 F2          -0.7760     1.0540    -1.8970 f          1 MBF      -0.233000
      5 C3           0.9610    -0.5130    -1.2440 c6         1 MBF       0.105300
      6 O3           1.8700     0.0070    -2.2400 oh         1 MBF      -0.647000
      7 C4           1.2440     0.1590     0.1340 c6         1 MBF       0.142300
      8 O4           2.6110    -0.0950     0.5120 oh         1 MBF      -0.720000
      9 C5           0.2270    -0.3630     1.2000 c6         1 MBF       0.182300
     10 O5          -1.1320    -0.1260     0.7410 os         1 MBF      -0.463000
     11 C6           0.4090     0.3350     2.5890 c3         1 MBF       0.171600
     12 O6          -0.5540    -0.0910     3.5780 oh         1 MBF      -0.713000
     13 H1          -2.9140     0.4270    -0.4420 ho         1 MBF       0.465000
     14 HA          -1.3400    -1.8910    -0.3400 h2         1 MBF       0.018700
     15 H2          -0.7660    -0.8780    -2.5600 h1         1 MBF       0.064700
     16 H3           1.1300    -1.5940    -1.1310 h1         1 MBF       0.043700
     17 HB           1.6490    -0.4230    -3.0970 ho         1 MBF       0.452000
     18 H4           1.0870     1.2430     0.0240 h1         1 MBF       0.072700
     19 HC           3.1220    -0.0120    -0.3300 ho         1 MBF       0.524000
     20 H5           0.3680    -1.4450     1.3400 h1         1 MBF       0.053700
     21 H6C1         0.3360     1.4210     2.4350 h1         1 MBF       0.039200
     22 H6C2         1.4270     0.1270     2.9460 h1         1 MBF       0.039200
     23 H6          -0.3950     0.4510     4.3860 ho         1 MBF       0.505000
@<TRIPOS>BOND
     1     1     2 1   
     2     1    13 1   
     3     2     3 1   
     4     2    10 1   
     5     2    14 1   
     6     3     4 1   
     7     3     5 1   
     8     3    15 1   
     9     5     6 1   
    10     5     7 1   
    11     5    16 1   
    12     6    17 1   
    13     7     8 1   
    14     7     9 1   
    15     7    18 1   
    16     8    19 1   
    17     9    10 1   
    18     9    11 1   
    19     9    20 1   
    20    11    12 1   
    21    11    21 1   
    22    11    22 1   
    23    12    23 1   
@<TRIPOS>SUBSTRUCTURE
     1 MBF         1 TEMP              0 ****  ****    0 ROOT
