@<TRIPOS>MOLECULE
MBF
   23    23     1     0     0
SMALL
bcc


@<TRIPOS>ATOM
      1 O1          -2.7490    -0.2370    -0.7830 oh         1 MBF      -0.561800
      2 C1          -1.4560    -0.5940    -0.4740 c6         1 MBF       0.328900
      3 C2          -0.5370    -0.1970    -1.6160 c6         1 MBF       0.127600
      4 F2          -0.6750     1.1660    -1.8520 f          1 MBF      -0.214300
      5 C3           0.9000    -0.5080    -1.2340 c6         1 MBF       0.082100
      6 O3           1.8210    -0.0490    -2.1900 oh         1 MBF      -0.584800
      7 C4           1.2640     0.1240     0.1070 c6         1 MBF       0.119100
      8 O4           2.5190    -0.3280     0.5520 oh         1 MBF      -0.597800
      9 C5           0.2190    -0.2710     1.1550 c6         1 MBF       0.159100
     10 O5          -1.0720     0.0770     0.7010 os         1 MBF      -0.416600
     11 C6           0.4510     0.4360     2.4740 c3         1 MBF       0.148400
     12 O6          -0.4880    -0.0340     3.4120 oh         1 MBF      -0.590800
     13 H1          -3.3520    -0.6800    -0.1760 ho         1 MBF       0.426000
     14 HA          -1.3550    -1.6830    -0.3240 h2         1 MBF       0.018700
     15 H2          -0.8180    -0.7270    -2.5310 h1         1 MBF       0.064700
     16 H3           0.9660    -1.5990    -1.1110 h1         1 MBF       0.043700
     17 HB           1.8400    -0.6620    -2.9310 ho         1 MBF       0.413000
     18 H4           1.2540     1.2190    -0.0010 h1         1 MBF       0.072700
     19 HC           3.1780    -0.0740    -0.1030 ho         1 MBF       0.425000
     20 H5           0.2850    -1.3600     1.3150 h1         1 MBF       0.053700
     21 H6C1         0.3600     1.5200     2.3140 h1         1 MBF       0.039200
     22 H6C2         1.4790     0.2420     2.7970 h1         1 MBF       0.039200
     23 H6          -0.2920     0.3770     4.2580 ho         1 MBF       0.406000
@<TRIPOS>BOND
     1     1     2 1   
     2     1    13 1   
     3     2     3 1   
     4     2    10 1   
     5     2    14 1   
     6     3     4 1   
     7     3     5 1   
     8     3    15 1   
     9     5     6 1   
    10     5     7 1   
    11     5    16 1   
    12     6    17 1   
    13     7     8 1   
    14     7     9 1   
    15     7    18 1   
    16     8    19 1   
    17     9    10 1   
    18     9    11 1   
    19     9    20 1   
    20    11    12 1   
    21    11    21 1   
    22    11    22 1   
    23    12    23 1   
@<TRIPOS>SUBSTRUCTURE
     1 MBF         1 TEMP              0 ****  ****    0 ROOT
