@<TRIPOS>MOLECULE
MBG
   27    27     1     0     0
SMALL
No Charge or Current Charge


@<TRIPOS>ATOM
      1 C1          54.2990   -12.3770    16.5250 c6         1 MBG       0.399300
      2 C2          53.0180   -12.1460    15.6490 c6         1 MBG       0.152300
      3 C3          52.2110   -10.9380    16.2210 c6         1 MBG       0.135300
      4 C4          51.8980   -11.1480    17.7340 c6         1 MBG       0.114300
      5 C5          53.2480   -11.4270    18.4820 c6         1 MBG       0.150300
      6 C6          53.0700   -11.6630    20.0190 c3         1 MBG       0.169600
      7 O1          55.0370   -13.5310    16.0760 os         1 MBG      -0.421000
      8 O2          53.3140   -11.9190    14.2460 oh         1 MBG      -0.709000
      9 O3          50.9850   -10.7650    15.4910 oh         1 MBG      -0.644000
     10 O4          50.9460   -12.2300    17.8700 oh         1 MBG      -0.687000
     11 O5          53.9190   -12.5760    17.9030 os         1 MBG      -0.462000
     12 O6          54.3200   -11.8590    20.7090 oh         1 MBG      -0.707000
     13 H1          54.9470   -11.4900    16.4510 h2         1 MBG       0.023700
     14 H2          52.3970   -13.0480    15.7530 h1         1 MBG       0.086700
     15 H3          52.8290   -10.0330    16.1220 h1         1 MBG       0.037700
     16 H4          51.4650   -10.2180    18.1320 h1         1 MBG       0.030700
     17 H5          53.8990   -10.5480    18.3630 h1         1 MBG       0.046700
     18 H61         52.5440   -10.7950    20.4390 h1         1 MBG       0.026700
     19 H62         52.4240   -12.5390    20.1650 h1         1 MBG       0.026700
     20 H71         56.8010   -14.6330    16.2710 h1         1 MBG       0.035367
     21 H72         56.9720   -12.8870    16.5560 h1         1 MBG       0.035367
     22 H73         56.1950   -13.9200    17.7810 h1         1 MBG       0.035367
     23 HO2         52.5050   -11.4830    13.8830 ho         1 MBG       0.518000
     24 HO3         50.3290   -11.3100    15.9860 ho         1 MBG       0.446000
     25 HO4         50.6050   -12.2160    18.7940 ho         1 MBG       0.500000
     26 HO6         54.1010   -12.0760    21.6450 ho         1 MBG       0.506000
     27 C7          56.3110   -13.7510    16.7030 c3         1 MBG       0.149900
@<TRIPOS>BOND
     1     1     2 1   
     2     1     7 1   
     3     1    11 1   
     4     1    13 1   
     5     2     3 1   
     6     2     8 1   
     7     2    14 1   
     8     3     4 1   
     9     3     9 1   
    10     3    15 1   
    11     4     5 1   
    12     4    10 1   
    13     4    16 1   
    14     5     6 1   
    15     5    11 1   
    16     5    17 1   
    17     6    12 1   
    18     6    18 1   
    19     6    19 1   
    20     7    27 1   
    21     8    23 1   
    22     9    24 1   
    23    10    25 1   
    24    12    26 1   
    25    20    27 1   
    26    21    27 1   
    27    22    27 1   
@<TRIPOS>SUBSTRUCTURE
     1 MBG         1 TEMP              0 ****  ****    0 ROOT
