@<TRIPOS>MOLECULE
MBG
   27    27     1     0     0
SMALL
abcg2


@<TRIPOS>ATOM
      1 C1          54.2480   -12.4060    16.5970 c6         1 MBG       0.399300
      2 C2          52.9970   -12.2420    15.7410 c6         1 MBG       0.152300
      3 C3          52.1760   -11.0830    16.3040 c6         1 MBG       0.135300
      4 C4          51.8780   -11.2830    17.7900 c6         1 MBG       0.114300
      5 C5          53.2120   -11.5030    18.5080 c6         1 MBG       0.150300
      6 C6          53.0500   -11.7550    19.9910 c3         1 MBG       0.169600
      7 O1          54.9510   -13.5060    16.1650 os         1 MBG      -0.421000
      8 O2          53.4030   -11.9860    14.4210 oh         1 MBG      -0.709000
      9 O3          51.0200   -10.9650    15.5130 oh         1 MBG      -0.644000
     10 O4          51.0010   -12.3730    17.9360 oh         1 MBG      -0.687000
     11 O5          53.8910   -12.6030    17.9400 os         1 MBG      -0.462000
     12 O6          54.3260   -11.7780    20.5860 oh         1 MBG      -0.707000
     13 H1          54.8620   -11.4870    16.5120 h2         1 MBG       0.023700
     14 H2          52.4080   -13.1690    15.8060 h1         1 MBG       0.086700
     15 H3          52.7960   -10.1760    16.2280 h1         1 MBG       0.037700
     16 H4          51.4300   -10.3570    18.1780 h1         1 MBG       0.030700
     17 H5          53.8090   -10.5830    18.3830 h1         1 MBG       0.046700
     18 H61         52.4220   -10.9540    20.4020 h1         1 MBG       0.026700
     19 H62         52.5160   -12.7000    20.1490 h1         1 MBG       0.026700
     20 H71         56.7660   -14.4020    16.1250 h1         1 MBG       0.035367
     21 H72         56.8300   -12.6670    16.4780 h1         1 MBG       0.035367
     22 H73         56.3060   -13.8110    17.7290 h1         1 MBG       0.035367
     23 HO2         52.6190   -11.7560    13.9130 ho         1 MBG       0.518000
     24 HO3         50.6520   -10.0840    15.6320 ho         1 MBG       0.446000
     25 HO4         50.5300   -12.2890    18.7700 ho         1 MBG       0.500000
     26 HO6         54.2200   -12.0160    21.5110 ho         1 MBG       0.506000
     27 C7          56.2720   -13.5920    16.6590 c3         1 MBG       0.149900
@<TRIPOS>BOND
     1     1     2 1   
     2     1     7 1   
     3     1    11 1   
     4     1    13 1   
     5     2     3 1   
     6     2     8 1   
     7     2    14 1   
     8     3     4 1   
     9     3     9 1   
    10     3    15 1   
    11     4     5 1   
    12     4    10 1   
    13     4    16 1   
    14     5     6 1   
    15     5    11 1   
    16     5    17 1   
    17     6    12 1   
    18     6    18 1   
    19     6    19 1   
    20     7    27 1   
    21     8    23 1   
    22     9    24 1   
    23    10    25 1   
    24    12    26 1   
    25    20    27 1   
    26    21    27 1   
    27    22    27 1   
@<TRIPOS>SUBSTRUCTURE
     1 MBG         1 TEMP              0 ****  ****    0 ROOT
