@<TRIPOS>MOLECULE
MBH
   28    28     1     0     0
SMALL
abcg2


@<TRIPOS>ATOM
      1 N1           0.8960    -0.6920    -0.4010 n4         1 MBH      -0.301000
      2 N2           0.8290     0.1920    -1.5230 n8         1 MBH      -0.766000
      3 C            0.1090    -0.0810     0.7410 c3         1 MBH       0.175900
      4 C1          -1.3500     0.0940     0.4610 ca         1 MBH      -0.132300
      5 C2          -2.2620    -0.8430     0.9390 ca         1 MBH      -0.078000
      6 C3          -3.6230    -0.6860     0.7160 ca         1 MBH      -0.114500
      7 C4          -4.0850     0.4190     0.0140 ca         1 MBH      -0.085000
      8 C5          -3.1830     1.3670    -0.4540 ca         1 MBH      -0.114500
      9 C6          -1.8240     1.2070    -0.2300 ca         1 MBH      -0.078000
     10 C1M          0.2840    -1.9830    -0.8090 c3         1 MBH       0.074900
     11 CA2          2.3070    -0.9530     0.0600 c3         1 MBH      -0.099400
     12 CA1          3.1680     0.2850     0.4110 c          1 MBH       0.720000
     13 O            2.7530     1.4170     0.0910 o          1 MBH      -0.662500
     14 HN21         1.4160     0.9840    -1.2580 hn         1 MBH       0.455500
     15 HN22         1.2920    -0.2800    -2.2940 hn         1 MBH       0.455500
     16 H1           0.2590    -0.7500     1.5880 hx         1 MBH       0.106200
     17 H2A          0.5910     0.8680     0.9640 hx         1 MBH       0.106200
     18 H2          -1.9070    -1.7030     1.4960 ha         1 MBH       0.120000
     19 H3          -4.3200    -1.4230     1.0930 ha         1 MBH       0.121500
     20 H4          -5.1450     0.5470    -0.1600 ha         1 MBH       0.120000
     21 H5          -3.5400     2.2370    -0.9900 ha         1 MBH       0.121500
     22 H6          -1.1300     1.9560    -0.5900 ha         1 MBH       0.120000
     23 H1M1         0.8960    -2.4240    -1.5920 hx         1 MBH       0.081033
     24 H1M2         0.2540    -2.6510     0.0470 hx         1 MBH       0.081033
     25 H1M3        -0.7170    -1.8040    -1.1850 hx         1 MBH       0.081033
     26 HA21         2.2480    -1.6220     0.9180 hx         1 MBH       0.075700
     27 HA22         2.7980    -1.4960    -0.7500 hx         1 MBH       0.075700
     28 OXT          4.2330    -0.0100     0.9610 o          1 MBH      -0.662500
@<TRIPOS>BOND
     1     1     2 1   
     2     1     3 1   
     3     1    10 1   
     4     1    11 1   
     5     2    14 1   
     6     2    15 1   
     7     3     4 1   
     8     3    16 1   
     9     3    17 1   
    10     4     5 ar  
    11     4     9 ar  
    12     5     6 ar  
    13     5    18 1   
    14     6     7 ar  
    15     6    19 1   
    16     7     8 ar  
    17     7    20 1   
    18     8     9 ar  
    19     8    21 1   
    20     9    22 1   
    21    10    23 1   
    22    10    24 1   
    23    10    25 1   
    24    11    12 1   
    25    11    26 1   
    26    11    27 1   
    27    12    13 1   
    28    12    28 1   
@<TRIPOS>SUBSTRUCTURE
     1 MBH         1 TEMP              0 ****  ****    0 ROOT
