@<TRIPOS>MOLECULE
MBH
   28    28     1     0     0
SMALL
No Charge or Current Charge


@<TRIPOS>ATOM
      1 N1           0.9090    -0.7410    -0.4390 n4         1 MBH      -0.301000
      2 N2           0.8660     0.1320    -1.6400 n8         1 MBH      -0.766000
      3 C            0.1140    -0.0950     0.7210 c3         1 MBH       0.175900
      4 C1          -1.3810     0.1040     0.4900 ca         1 MBH      -0.132300
      5 C2          -2.2990    -0.8690     0.9320 ca         1 MBH      -0.078000
      6 C3          -3.6780    -0.6860     0.7260 ca         1 MBH      -0.114500
      7 C4          -4.1460     0.4700     0.0800 ca         1 MBH      -0.085000
      8 C5          -3.2340     1.4450    -0.3590 ca         1 MBH      -0.114500
      9 C6          -1.8550     1.2630    -0.1530 ca         1 MBH      -0.078000
     10 C1M          0.3040    -2.1020    -0.8080 c3         1 MBH       0.074900
     11 CA2          2.3900    -0.9190    -0.0400 c3         1 MBH      -0.099400
     12 CA1          3.1650     0.3060     0.4880 c          1 MBH       0.720000
     13 O            3.2980     1.2640    -0.2600 o          1 MBH      -0.662500
     14 HN21         1.4490     0.9650    -1.4640 hn         1 MBH       0.455500
     15 HN22         1.3620    -0.3190    -2.4200 hn         1 MBH       0.455500
     16 H1           0.2630    -0.7250     1.6010 hx         1 MBH       0.106200
     17 H2A          0.5780     0.8700     0.9350 hx         1 MBH       0.106200
     18 H2          -1.9450    -1.7670     1.4340 ha         1 MBH       0.120000
     19 H3          -4.3830    -1.4410     1.0670 ha         1 MBH       0.121500
     20 H4          -5.2130     0.6110    -0.0790 ha         1 MBH       0.120000
     21 H5          -3.5950     2.3420    -0.8580 ha         1 MBH       0.121500
     22 H6          -1.1550     2.0210    -0.4970 ha         1 MBH       0.120000
     23 H1M1         0.8880    -2.5500    -1.6140 hx         1 MBH       0.081033
     24 H1M2         0.3260    -2.7510     0.0690 hx         1 MBH       0.081033
     25 H1M3        -0.7270    -1.9530    -1.1330 hx         1 MBH       0.081033
     26 HA21         2.4290    -1.6700     0.7500 hx         1 MBH       0.075700
     27 HA22         2.9370    -1.3000    -0.9020 hx         1 MBH       0.075700
     28 OXT          3.5780     0.2670     1.6370 o          1 MBH      -0.662500
@<TRIPOS>BOND
     1     1     2 1   
     2     1     3 1   
     3     1    10 1   
     4     1    11 1   
     5     2    14 1   
     6     2    15 1   
     7     3     4 1   
     8     3    16 1   
     9     3    17 1   
    10     4     5 ar  
    11     4     9 ar  
    12     5     6 ar  
    13     5    18 1   
    14     6     7 ar  
    15     6    19 1   
    16     7     8 ar  
    17     7    20 1   
    18     8     9 ar  
    19     8    21 1   
    20     9    22 1   
    21    10    23 1   
    22    10    24 1   
    23    10    25 1   
    24    11    12 1   
    25    11    26 1   
    26    11    27 1   
    27    12    13 1   
    28    12    28 1   
@<TRIPOS>SUBSTRUCTURE
     1 MBH         1 TEMP              0 ****  ****    0 ROOT
