@<TRIPOS>MOLECULE
MBI
   55    58     1     0     0
SMALL
abcg2


@<TRIPOS>ATOM
      1 C01         20.2120    19.4760   -27.6920 c3         1 MBI      -0.041800
      2 C02         18.8220    18.9610   -27.4540 ca         1 MBI      -0.116300
      3 C03         17.7970    19.8610   -27.1690 ca         1 MBI      -0.093000
      4 C04         16.5130    19.4500   -26.8510 ca         1 MBI      -0.125000
      5 C05         16.2510    18.0910   -26.8210 ca         1 MBI       0.132000
      6 CL6         14.6520    17.5420   -26.4160 cl         1 MBI      -0.214000
      7 C07         17.2300    17.1680   -27.1320 ca         1 MBI      -0.119000
      8 C08         18.5220    17.5890   -27.4630 ca         1 MBI       0.324000
      9 N09         19.4620    16.6020   -27.7770 nh         1 MBI      -0.858400
     10 C10         19.9380    15.7320   -26.7160 c6         1 MBI       0.226800
     11 C11         20.9070    14.7050   -27.2990 c6         1 MBI       0.183800
     12 N12         20.3830    14.2730   -28.5790 nh         1 MBI      -0.791400
     13 C13         20.4460    15.3280   -29.5930 c6         1 MBI       0.183800
     14 C14         20.3260    16.7030   -28.9260 c6         1 MBI       0.226800
     15 C15         20.7610    12.9990   -29.0530 ca         1 MBI       0.150000
     16 C16         19.7720    12.2120   -29.6700 ca         1 MBI      -0.053000
     17 N17         18.4860    12.7590   -29.6700 ns         1 MBI      -0.132000
     18 C18         17.4400    12.4700   -30.4750 c          1 MBI       0.603700
     19 O19         17.4640    11.6330   -31.3630 o          1 MBI      -0.574100
     20 C20         16.2130    13.2860   -30.2200 ca         1 MBI      -0.124600
     21 C21         15.3580    13.5370   -31.2900 ca         1 MBI      -0.075500
     22 C22         14.2080    14.2890   -31.1190 ca         1 MBI      -0.099500
     23 C23         13.9000    14.7730   -29.8550 ca         1 MBI      -0.006900
     24 BR1         12.3350    15.7970   -29.6080 br         1 MBI      -0.116100
     25 C25         14.7210    14.5150   -28.7690 ca         1 MBI      -0.099500
     26 C26         15.8780    13.7750   -28.9600 ca         1 MBI      -0.075500
     27 C27         20.1000    10.9610   -30.1800 ca         1 MBI      -0.092000
     28 C28         21.3980    10.4660   -30.0750 ca         1 MBI      -0.114600
     29 C29         22.3660    11.2380   -29.4420 ca         1 MBI      -0.098000
     30 C30         22.0490    12.4930   -28.9420 ca         1 MBI      -0.148000
     31 C31         21.7390     9.0900   -30.6440 c          1 MBI       0.712600
     32 O32         22.9140     8.7050   -30.4970 o          1 MBI      -0.713000
     33 O33         20.8110     8.4770   -31.2060 o          1 MBI      -0.713000
     34 H1          20.4840    19.4720   -28.7490 hc         1 MBI       0.040700
     35 H2          20.3050    20.5020   -27.3400 hc         1 MBI       0.040700
     36 H3          20.9560    18.8750   -27.1680 hc         1 MBI       0.040700
     37 H4          18.0180    20.9220   -27.1660 ha         1 MBI       0.108000
     38 H5          15.7440    20.1740   -26.6180 ha         1 MBI       0.124000
     39 H6          17.0030    16.1100   -27.1410 ha         1 MBI       0.137000
     40 H7          20.4420    16.2900   -25.9150 h1         1 MBI       0.030450
     41 H8          19.0920    15.2080   -26.2650 h1         1 MBI       0.030450
     42 H9          20.9710    13.8530   -26.6240 h1         1 MBI       0.041700
     43 H10         21.9190    15.1250   -27.3760 h1         1 MBI       0.041700
     44 H11         19.6340    15.1830   -30.3090 h1         1 MBI       0.041700
     45 H12         21.3880    15.2920   -30.1560 h1         1 MBI       0.041700
     46 H13         21.3250    17.0840   -28.6800 h1         1 MBI       0.030450
     47 H14         19.8990    17.4010   -29.6460 h1         1 MBI       0.030450
     48 H15         18.4210    13.5680   -29.0620 hn         1 MBI       0.168000
     49 H16         15.5950    13.1550   -32.2740 ha         1 MBI       0.132000
     50 H17         13.5650    14.4890   -31.9660 ha         1 MBI       0.127000
     51 H18         14.4750    14.8790   -27.7810 ha         1 MBI       0.127000
     52 H19         16.4970    13.5660   -28.0970 ha         1 MBI       0.132000
     53 H20         19.3490    10.3460   -30.6490 ha         1 MBI       0.163000
     54 H21         23.3750    10.8630   -29.3490 ha         1 MBI       0.131000
     55 H22         22.8170    13.0920   -28.4660 ha         1 MBI       0.086000
@<TRIPOS>BOND
     1     1     2 1   
     2     1    34 1   
     3     1    35 1   
     4     1    36 1   
     5     2     3 ar  
     6     2     8 ar  
     7     3     4 ar  
     8     3    37 1   
     9     4     5 ar  
    10     4    38 1   
    11     5     6 1   
    12     5     7 ar  
    13     7     8 ar  
    14     7    39 1   
    15     8     9 1   
    16     9    10 1   
    17     9    14 1   
    18    10    11 1   
    19    10    40 1   
    20    10    41 1   
    21    11    12 1   
    22    11    42 1   
    23    11    43 1   
    24    12    13 1   
    25    12    15 1   
    26    13    14 1   
    27    13    44 1   
    28    13    45 1   
    29    14    46 1   
    30    14    47 1   
    31    15    16 ar  
    32    15    30 ar  
    33    16    17 1   
    34    16    27 ar  
    35    17    18 1   
    36    17    48 1   
    37    18    19 2   
    38    18    20 1   
    39    20    21 ar  
    40    20    26 ar  
    41    21    22 ar  
    42    21    49 1   
    43    22    23 ar  
    44    22    50 1   
    45    23    24 1   
    46    23    25 ar  
    47    25    26 ar  
    48    25    51 1   
    49    26    52 1   
    50    27    28 ar  
    51    27    53 1   
    52    28    29 ar  
    53    28    31 1   
    54    29    30 ar  
    55    29    54 1   
    56    30    55 1   
    57    31    32 1   
    58    31    33 1   
@<TRIPOS>SUBSTRUCTURE
     1 MBI         1 TEMP              0 ****  ****    0 ROOT
