@<TRIPOS>MOLECULE
MBI
   55    58     1     0     0
SMALL
No Charge or Current Charge


@<TRIPOS>ATOM
      1 C01         20.6150    19.6480   -27.0960 c3         1 MBI      -0.041800
      2 C02         19.1330    19.2750   -27.0900 ca         1 MBI      -0.116300
      3 C03         18.1740    20.2910   -26.9040 ca         1 MBI      -0.093000
      4 C04         16.8050    19.9800   -26.8850 ca         1 MBI      -0.125000
      5 C05         16.3870    18.6530   -27.0530 ca         1 MBI       0.132000
      6 Cl6         14.6720    18.2640   -27.0400 cl         1 MBI      -0.214000
      7 C07         17.3330    17.6360   -27.2390 ca         1 MBI      -0.119000
      8 C08         18.7080    17.9310   -27.2580 ca         1 MBI       0.324000
      9 N09         19.6420    16.8920   -27.4680 nh         1 MBI      -0.858400
     10 C10         19.6110    15.6360   -26.6420 c6         1 MBI       0.226800
     11 C11         20.5690    14.5080   -27.1620 c6         1 MBI       0.183800
     12 N12         20.3350    14.1800   -28.6040 nh         1 MBI      -0.791400
     13 C13         20.0720    15.3670   -29.4870 c6         1 MBI       0.183800
     14 C14         20.3220    16.7540   -28.7960 c6         1 MBI       0.226800
     15 C15         20.7490    12.9460   -29.1560 ca         1 MBI       0.150000
     16 C16         19.8310    12.1280   -29.8540 ca         1 MBI      -0.053000
     17 N17         18.4850    12.5830   -29.9270 ns         1 MBI      -0.132000
     18 C18         17.3590    12.1380   -30.6030 c          1 MBI       0.603700
     19 O19         17.3640    11.1670   -31.3530 o          1 MBI      -0.574100
     20 C20         16.0950    12.9460   -30.3600 ca         1 MBI      -0.124600
     21 C21         14.9080    12.6080   -31.0520 ca         1 MBI      -0.075500
     22 C22         13.7240    13.3410   -30.8520 ca         1 MBI      -0.099500
     23 C23         13.7100    14.4200   -29.9570 ca         1 MBI      -0.006900
     24 Br1         12.1020    15.4180   -29.6850 br         1 MBI      -0.116100
     25 C25         14.8750    14.7690   -29.2600 ca         1 MBI      -0.099500
     26 C26         16.0610    14.0400   -29.4560 ca         1 MBI      -0.075500
     27 C27         20.2670    10.9020   -30.4060 ca         1 MBI      -0.092000
     28 C28         21.6120    10.4810   -30.2720 ca         1 MBI      -0.114600
     29 C29         22.5130    11.3110   -29.5670 ca         1 MBI      -0.098000
     30 C30         22.0820    12.5280   -29.0150 ca         1 MBI      -0.148000
     31 C31         22.0770     9.1580   -30.8670 c          1 MBI       0.712600
     32 O32         23.2490     8.8340   -30.7320 o          1 MBI      -0.713000
     33 O33         21.2640     8.4640   -31.4610 o          1 MBI      -0.713000
     34 H1          21.0290    19.5920   -28.1100 hc         1 MBI       0.040700
     35 H2          20.7790    20.6670   -26.7280 hc         1 MBI       0.040700
     36 H3          21.1970    18.9750   -26.4560 hc         1 MBI       0.040700
     37 H4          18.4880    21.3250   -26.7730 ha         1 MBI       0.108000
     38 H5          16.0680    20.7670   -26.7420 ha         1 MBI       0.124000
     39 H6          16.9940    16.6160   -27.3830 ha         1 MBI       0.137000
     40 H7          19.8820    15.8720   -25.6030 h1         1 MBI       0.030450
     41 H8          18.5910    15.2250   -26.6230 h1         1 MBI       0.030450
     42 H9          20.4180    13.6110   -26.5430 h1         1 MBI       0.041700
     43 H10         21.6100    14.8320   -27.0170 h1         1 MBI       0.041700
     44 H11         19.0280    15.3420   -29.8310 h1         1 MBI       0.041700
     45 H12         20.7040    15.3120   -30.3850 h1         1 MBI       0.041700
     46 H13         21.4050    16.8950   -28.6630 h1         1 MBI       0.030450
     47 H14         19.9850    17.5490   -29.4780 h1         1 MBI       0.030450
     48 H15         18.3320    13.4090   -29.3650 hn         1 MBI       0.168000
     49 H16         14.8980    11.7750   -31.7520 ha         1 MBI       0.132000
     50 H17         12.8200    13.0690   -31.3930 ha         1 MBI       0.127000
     51 H18         14.8590    15.6040   -28.5640 ha         1 MBI       0.127000
     52 H19         16.9400    14.3410   -28.8910 ha         1 MBI       0.132000
     53 H20         19.5700    10.2580   -30.9320 ha         1 MBI       0.163000
     54 H21         23.5530    11.0160   -29.4450 ha         1 MBI       0.131000
     55 H22         22.7930    13.1540   -28.4830 ha         1 MBI       0.086000
@<TRIPOS>BOND
     1     1     2 1   
     2     1    34 1   
     3     1    35 1   
     4     1    36 1   
     5     2     3 ar  
     6     2     8 ar  
     7     3     4 ar  
     8     3    37 1   
     9     4     5 ar  
    10     4    38 1   
    11     5     6 1   
    12     5     7 ar  
    13     7     8 ar  
    14     7    39 1   
    15     8     9 1   
    16     9    10 1   
    17     9    14 1   
    18    10    11 1   
    19    10    40 1   
    20    10    41 1   
    21    11    12 1   
    22    11    42 1   
    23    11    43 1   
    24    12    13 1   
    25    12    15 1   
    26    13    14 1   
    27    13    44 1   
    28    13    45 1   
    29    14    46 1   
    30    14    47 1   
    31    15    16 ar  
    32    15    30 ar  
    33    16    17 1   
    34    16    27 ar  
    35    17    18 1   
    36    17    48 1   
    37    18    19 2   
    38    18    20 1   
    39    20    21 ar  
    40    20    26 ar  
    41    21    22 ar  
    42    21    49 1   
    43    22    23 ar  
    44    22    50 1   
    45    23    24 1   
    46    23    25 ar  
    47    25    26 ar  
    48    25    51 1   
    49    26    52 1   
    50    27    28 ar  
    51    27    53 1   
    52    28    29 ar  
    53    28    31 1   
    54    29    30 ar  
    55    29    54 1   
    56    30    55 1   
    57    31    32 1   
    58    31    33 1   
@<TRIPOS>SUBSTRUCTURE
     1 MBI         1 TEMP              0 ****  ****    0 ROOT
