@<TRIPOS>MOLECULE
MBK
   59    61     1     0     0
SMALL
No Charge or Current Charge


@<TRIPOS>ATOM
      1 C1         -11.9350    11.6690    38.8710 cc         1 MBK       0.404600
      2 C10        -11.7780     4.1050    39.6530 ca         1 MBK      -0.057000
      3 C11        -10.6120     4.8790    39.5370 ca         1 MBK      -0.133000
      4 C12        -10.6080     6.2200    39.9580 ca         1 MBK      -0.001500
      5 C13        -11.8840    14.8770    39.1560 ca         1 MBK      -0.111300
      6 C14        -13.0160    15.7000    39.3290 ca         1 MBK      -0.099000
      7 C15        -13.1520    16.4840    40.4880 ca         1 MBK      -0.079500
      8 C16        -12.1570    16.4510    41.4780 ca         1 MBK      -0.014900
      9 C17        -11.0230    15.6410    41.3110 ca         1 MBK      -0.079500
     10 C18        -10.8850    14.8580    40.1510 ca         1 MBK      -0.099000
     11 C19        -13.5460    11.7470    40.8280 c3         1 MBK       0.230800
     12 C2         -11.4840    10.3470    38.9530 cd         1 MBK      -0.202200
     13 C20        -14.1750    12.9530    41.5520 c3         1 MBK      -0.088400
     14 C21        -14.6070    12.6530    43.0100 c3         1 MBK      -0.067400
     15 C22        -15.6830    11.5520    43.1730 c3         1 MBK       0.138800
     16 C3         -10.1820    10.0110    38.3060 c          1 MBK       0.602200
     17 C4          -9.9740    12.3210    37.5800 c          1 MBK       0.628000
     18 C6         -13.5230     8.8730    38.9930 c3         1 MBK       0.192100
     19 C7         -11.7780     6.7940    40.4960 ca         1 MBK      -0.276500
     20 C8         -12.9460     6.0130    40.6190 ca         1 MBK      -0.001500
     21 C9         -12.9440     4.6720    40.1960 ca         1 MBK      -0.133000
     22 N1         -11.2210    12.6320    38.1440 n          1 MBK      -0.345000
     23 N2          -9.5550    11.0480    37.7140 ns         1 MBK      -0.460500
     24 N3         -13.0830    12.1370    39.4880 nu         1 MBK      -0.819200
     25 N4         -12.2530     9.3240    39.5950 nh         1 MBK      -0.591300
     26 O1          -9.2770    13.1240    36.9820 o          1 MBK      -0.557000
     27 O2          -9.6840     8.8970    38.2680 o          1 MBK      -0.555000
     28 O3         -12.8650     8.7080    42.0090 o          1 MBK      -0.548500
     29 O4         -10.4020     8.9310    41.3490 o          1 MBK      -0.548500
     30 S1         -11.7770     8.5160    41.0400 sy         1 MBK       1.168600
     31 Br1        -12.3510    17.5060    43.0610 br         1 MBK      -0.087100
     32 N5         -16.9570    11.9100    42.5170 n8         1 MBK      -1.004200
     33 H2          -9.7080     4.4400    39.1210 ha         1 MBK       0.115500
     34 H3          -9.6950     6.8050    39.8660 ha         1 MBK       0.131500
     35 H4         -13.7930    15.7340    38.5680 ha         1 MBK       0.123000
     36 H5         -14.0300    17.1140    40.6180 ha         1 MBK       0.135500
     37 H6         -10.2520    15.6170    42.0770 ha         1 MBK       0.135500
     38 H7         -10.0020    14.2330    40.0320 ha         1 MBK       0.123000
     39 H8         -14.2870    10.9410    40.7500 h1         1 MBK       0.070200
     40 H9         -12.7010    11.3830    41.4270 h1         1 MBK       0.070200
     41 H10        -13.4430    13.7680    41.5790 hc         1 MBK       0.048200
     42 H11        -15.0350    13.3180    40.9780 hc         1 MBK       0.048200
     43 H12        -13.7210    12.3580    43.5860 hc         1 MBK       0.044200
     44 H13        -14.9730    13.5800    43.4680 hc         1 MBK       0.044200
     45 H14        -15.3180    10.6030    42.7550 h1         1 MBK       0.041700
     46 H15        -15.8740    11.3950    44.2440 h1         1 MBK       0.041700
     47 H18        -14.2950     8.7230    39.7590 h1         1 MBK       0.048700
     48 H19        -13.8960     9.6180    38.2790 h1         1 MBK       0.048700
     49 H20        -13.3750     7.9300    38.4530 h1         1 MBK       0.048700
     50 H21        -13.8570     6.4370    41.0400 ha         1 MBK       0.131500
     51 H22        -13.8460     4.0730    40.2890 ha         1 MBK       0.115500
     52 H23         -8.6690    10.8350    37.2870 hn         1 MBK       0.348500
     53 H24        -13.2650    13.1080    39.2600 hn         1 MBK       0.491000
     54 H25        -17.6590    11.1900    42.7290 hn         1 MBK       0.392000
     55 H26        -17.3370    12.7540    42.9620 hn         1 MBK       0.392000
     56 C5         -11.7540    14.0120    37.9040 c3         1 MBK       0.127300
     57 H1         -11.7790     3.0670    39.3260 ha         1 MBK       0.112000
     58 H16        -11.1310    14.5580    37.1850 h1         1 MBK       0.083200
     59 H17        -12.7360    13.9160    37.4210 h1         1 MBK       0.083200
@<TRIPOS>BOND
     1     1    12 2   
     2     1    22 1   
     3     1    24 1   
     4     2     3 ar  
     5     2    21 ar  
     6     2    57 1   
     7     3     4 ar  
     8     3    33 1   
     9     4    19 ar  
    10     4    34 1   
    11     5     6 ar  
    12     5    10 ar  
    13     5    56 1   
    14     6     7 ar  
    15     6    35 1   
    16     7     8 ar  
    17     7    36 1   
    18     8     9 ar  
    19     8    31 1   
    20     9    10 ar  
    21     9    37 1   
    22    10    38 1   
    23    11    13 1   
    24    11    24 1   
    25    11    39 1   
    26    11    40 1   
    27    12    16 1   
    28    12    25 1   
    29    13    14 1   
    30    13    41 1   
    31    13    42 1   
    32    14    15 1   
    33    14    43 1   
    34    14    44 1   
    35    15    32 1   
    36    15    45 1   
    37    15    46 1   
    38    16    23 1   
    39    16    27 2   
    40    17    22 1   
    41    17    23 1   
    42    17    26 2   
    43    18    25 1   
    44    18    47 1   
    45    18    48 1   
    46    18    49 1   
    47    19    20 ar  
    48    19    30 1   
    49    20    21 ar  
    50    20    50 1   
    51    21    51 1   
    52    22    56 1   
    53    23    52 1   
    54    24    53 1   
    55    25    30 1   
    56    28    30 2   
    57    29    30 2   
    58    32    54 1   
    59    32    55 1   
    60    56    58 1   
    61    56    59 1   
@<TRIPOS>SUBSTRUCTURE
     1 MBK         1 TEMP              0 ****  ****    0 ROOT
