@<TRIPOS>MOLECULE
MBK
   59    61     1     0     0
SMALL
abcg2


@<TRIPOS>ATOM
      1 C1         -12.3030    11.7040    38.8630 cc         1 MBK       0.404600
      2 C10        -10.8630     4.5370    39.9930 ca         1 MBK      -0.057000
      3 C11         -9.9650     5.5750    40.2080 ca         1 MBK      -0.133000
      4 C12        -10.4270     6.8520    40.4860 ca         1 MBK      -0.001500
      5 C13        -11.6070    14.7000    39.2930 ca         1 MBK      -0.111300
      6 C14        -12.3850    15.8050    39.6190 ca         1 MBK      -0.099000
      7 C15        -12.1660    16.5170    40.7890 ca         1 MBK      -0.079500
      8 C16        -11.1530    16.1100    41.6440 ca         1 MBK      -0.014900
      9 C17        -10.3620    15.0110    41.3390 ca         1 MBK      -0.079500
     10 C18        -10.5920    14.3160    40.1610 ca         1 MBK      -0.099000
     11 C19        -13.8510    11.8420    40.8210 c3         1 MBK       0.230800
     12 C2         -11.9770    10.3600    38.9230 cd         1 MBK      -0.202200
     13 C20        -14.4660    13.0380    41.5300 c3         1 MBK      -0.088400
     14 C21        -14.8740    12.7080    42.9630 c3         1 MBK      -0.067400
     15 C22        -15.8410    11.5390    43.0990 c3         1 MBK       0.138800
     16 C3         -10.8980     9.8400    38.1460 c          1 MBK       0.602200
     17 C4         -10.4890    12.1080    37.2940 c          1 MBK       0.628000
     18 C6         -13.8610     8.8040    38.7250 c3         1 MBK       0.192100
     19 C7         -11.7950     7.0730    40.5590 ca         1 MBK      -0.276500
     20 C8         -12.7030     6.0400    40.3650 ca         1 MBK      -0.001500
     21 C9         -12.2290     4.7700    40.0700 ca         1 MBK      -0.133000
     22 N1         -11.5680    12.5510    38.0450 n          1 MBK      -0.345000
     23 N2         -10.2030    10.7850    37.4080 ns         1 MBK      -0.460500
     24 N3         -13.3160    12.2650    39.5330 nu         1 MBK      -0.819200
     25 N4         -12.8470     9.4490    39.5500 nh         1 MBK      -0.591300
     26 O1          -9.8350    12.8500    36.5900 o          1 MBK      -0.557000
     27 O2         -10.5760     8.6640    38.0850 o          1 MBK      -0.555000
     28 O3         -13.6150     8.4850    41.7350 o          1 MBK      -0.548500
     29 O4         -11.3100     9.4700    41.5210 o          1 MBK      -0.548500
     30 S1         -12.4010     8.6920    40.9570 sy         1 MBK       1.168600
     31 BR1        -10.8500    17.0580    43.2470 br         1 MBK      -0.087100
     32 N5         -17.0260    11.7330    42.2780 n8         1 MBK      -1.004200
     33 H2          -8.9000     5.3920    40.1580 ha         1 MBK       0.115500
     34 H3          -9.7240     7.6560    40.6480 ha         1 MBK       0.131500
     35 H4         -13.1850    16.1180    38.9590 ha         1 MBK       0.123000
     36 H5         -12.7890    17.3700    41.0220 ha         1 MBK       0.135500
     37 H6          -9.5710    14.6890    42.0030 ha         1 MBK       0.135500
     38 H7          -9.9700    13.4570    39.9430 ha         1 MBK       0.123000
     39 H8         -14.5940    11.0560    40.6950 h1         1 MBK       0.070200
     40 H9         -13.0370    11.4490    41.4290 h1         1 MBK       0.070200
     41 H10        -13.7410    13.8570    41.5520 hc         1 MBK       0.048200
     42 H11        -15.3330    13.3920    40.9660 hc         1 MBK       0.048200
     43 H12        -13.9810    12.4870    43.5550 hc         1 MBK       0.044200
     44 H13        -15.3200    13.6000    43.4120 hc         1 MBK       0.044200
     45 H14        -15.3520    10.6160    42.7780 h1         1 MBK       0.041700
     46 H15        -16.0650    11.4040    44.1670 h1         1 MBK       0.041700
     47 H18        -14.6090     8.3130    39.3450 h1         1 MBK       0.048700
     48 H19        -14.3730     9.5710    38.1480 h1         1 MBK       0.048700
     49 H20        -13.4270     8.0720    38.0410 h1         1 MBK       0.048700
     50 H21        -13.7680     6.2050    40.4480 ha         1 MBK       0.131500
     51 H22        -12.9310     3.9620    39.9120 ha         1 MBK       0.115500
     52 H23         -9.4190    10.4550    36.8590 hn         1 MBK       0.348500
     53 H24        -13.6070    13.1860    39.2520 hn         1 MBK       0.491000
     54 H25        -17.6360    10.9310    42.3690 hn         1 MBK       0.392000
     55 H26        -17.5550    12.5210    42.6310 hn         1 MBK       0.392000
     56 C5         -11.8680    13.9770    37.9950 c3         1 MBK       0.127300
     57 H1         -10.4960     3.5430    39.7720 ha         1 MBK       0.112000
     58 H16        -11.2470    14.4020    37.2100 h1         1 MBK       0.083200
     59 H17        -12.8970    14.1290    37.6620 h1         1 MBK       0.083200
@<TRIPOS>BOND
     1     1    12 2   
     2     1    22 1   
     3     1    24 1   
     4     2     3 ar  
     5     2    21 ar  
     6     2    57 1   
     7     3     4 ar  
     8     3    33 1   
     9     4    19 ar  
    10     4    34 1   
    11     5     6 ar  
    12     5    10 ar  
    13     5    56 1   
    14     6     7 ar  
    15     6    35 1   
    16     7     8 ar  
    17     7    36 1   
    18     8     9 ar  
    19     8    31 1   
    20     9    10 ar  
    21     9    37 1   
    22    10    38 1   
    23    11    13 1   
    24    11    24 1   
    25    11    39 1   
    26    11    40 1   
    27    12    16 1   
    28    12    25 1   
    29    13    14 1   
    30    13    41 1   
    31    13    42 1   
    32    14    15 1   
    33    14    43 1   
    34    14    44 1   
    35    15    32 1   
    36    15    45 1   
    37    15    46 1   
    38    16    23 1   
    39    16    27 2   
    40    17    22 1   
    41    17    23 1   
    42    17    26 2   
    43    18    25 1   
    44    18    47 1   
    45    18    48 1   
    46    18    49 1   
    47    19    20 ar  
    48    19    30 1   
    49    20    21 ar  
    50    20    50 1   
    51    21    51 1   
    52    22    56 1   
    53    23    52 1   
    54    24    53 1   
    55    25    30 1   
    56    28    30 2   
    57    29    30 2   
    58    32    54 1   
    59    32    55 1   
    60    56    58 1   
    61    56    59 1   
@<TRIPOS>SUBSTRUCTURE
     1 MBK         1 TEMP              0 ****  ****    0 ROOT
