@<TRIPOS>MOLECULE
MBL
   36    37     1     0     0
SMALL
No Charge or Current Charge


@<TRIPOS>ATOM
      1 N2          -0.9850     2.8510    -0.1160 nv         1 MBL      -1.016900
      2 C8          -0.2760     1.7250    -0.2450 cc         1 MBL       0.619400
      3 N           -0.7920     0.5180    -0.6510 na         1 MBL      -0.187500
      4 C9          -2.1790     0.2130    -1.0400 c3         1 MBL       0.070600
      5 C10         -3.0470    -0.2410     0.1520 c3         1 MBL      -0.100400
      6 C11         -4.5010    -0.5680    -0.2530 c3         1 MBL      -0.075400
      7 C12         -5.3720    -1.0240     0.9380 c3         1 MBL      -0.074400
      8 C13         -6.8220    -1.3510     0.5340 c3         1 MBL      -0.089100
      9 C7           0.2640    -0.3690    -0.6280 cc         1 MBL      -0.219000
     10 N1           0.9930     1.6830     0.0310 nd         1 MBL      -0.722000
     11 C6           1.3520     0.3670    -0.2070 cd         1 MBL       0.316500
     12 C3           2.7330    -0.1330    -0.0170 ca         1 MBL      -0.100500
     13 C1           3.0510    -1.4870    -0.2700 ca         1 MBL      -0.096000
     14 C5           3.7640     0.7310     0.4210 ca         1 MBL      -0.096000
     15 C4           5.0740     0.2540     0.6010 ca         1 MBL      -0.115500
     16 C2           5.3740    -1.0930     0.3460 ca         1 MBL      -0.112000
     17 C            4.3620    -1.9620    -0.0900 ca         1 MBL      -0.115500
     18 H1          -1.9880     2.7570    -0.0160 hn         1 MBL       0.452500
     19 H2          -0.5420     3.5970     0.4070 hn         1 MBL       0.452500
     20 H3          -2.6250     1.1000    -1.5070 h1         1 MBL       0.064700
     21 H4          -2.1600    -0.5830    -1.7970 h1         1 MBL       0.064700
     22 H5          -2.5910    -1.1280     0.6090 hc         1 MBL       0.048700
     23 H6          -3.0520     0.5470     0.9150 hc         1 MBL       0.048700
     24 H7          -4.9550     0.3190    -0.7130 hc         1 MBL       0.041200
     25 H8          -4.4940    -1.3560    -1.0170 hc         1 MBL       0.041200
     26 H9          -4.9210    -1.9120     1.3980 hc         1 MBL       0.039700
     27 H10         -5.3830    -0.2380     1.7030 hc         1 MBL       0.039700
     28 H11         -7.4000    -1.6690     1.4100 hc         1 MBL       0.034033
     29 H12         -7.3130    -0.4700     0.1020 hc         1 MBL       0.034033
     30 H13         -6.8470    -2.1600    -0.2050 hc         1 MBL       0.034033
     31 H14          0.1680    -1.4110    -0.8990 h4         1 MBL       0.157000
     32 H15          2.2860    -2.1810    -0.6080 ha         1 MBL       0.118000
     33 H16          3.5540     1.7790     0.6250 ha         1 MBL       0.118000
     34 H17          5.8560     0.9300     0.9390 ha         1 MBL       0.109000
     35 H18          6.3880    -1.4620     0.4850 ha         1 MBL       0.110000
     36 H19          4.5920    -3.0070    -0.2880 ha         1 MBL       0.109000
@<TRIPOS>BOND
     1     1     2 1   
     2     1    18 1   
     3     1    19 1   
     4     2     3 1   
     5     2    10 2   
     6     3     4 1   
     7     3     9 1   
     8     4     5 1   
     9     4    20 1   
    10     4    21 1   
    11     5     6 1   
    12     5    22 1   
    13     5    23 1   
    14     6     7 1   
    15     6    24 1   
    16     6    25 1   
    17     7     8 1   
    18     7    26 1   
    19     7    27 1   
    20     8    28 1   
    21     8    29 1   
    22     8    30 1   
    23     9    11 2   
    24     9    31 1   
    25    10    11 1   
    26    11    12 1   
    27    12    13 ar  
    28    12    14 ar  
    29    13    17 ar  
    30    13    32 1   
    31    14    15 ar  
    32    14    33 1   
    33    15    16 ar  
    34    15    34 1   
    35    16    17 ar  
    36    16    35 1   
    37    17    36 1   
@<TRIPOS>SUBSTRUCTURE
     1 MBL         1 TEMP              0 ****  ****    0 ROOT
