@<TRIPOS>MOLECULE
MBL
   36    37     1     0     0
SMALL
abcg2


@<TRIPOS>ATOM
      1 N2          -1.0900     2.7860    -0.0870 nv         1 MBL      -1.016900
      2 C8          -0.3140     1.6550    -0.1750 cc         1 MBL       0.619400
      3 N           -0.7960     0.4850    -0.6590 na         1 MBL      -0.187500
      4 C9          -2.1660     0.2000    -1.0310 c3         1 MBL       0.070600
      5 C10         -3.0250    -0.2140     0.1560 c3         1 MBL      -0.100400
      6 C11         -4.4530    -0.5420    -0.2580 c3         1 MBL      -0.075400
      7 C12         -5.3260    -0.9670     0.9160 c3         1 MBL      -0.074400
      8 C13         -6.7510    -1.3060     0.5010 c3         1 MBL      -0.089100
      9 C7           0.2520    -0.4040    -0.6620 cc         1 MBL      -0.219000
     10 N1           0.9620     1.5790     0.1060 nd         1 MBL      -0.722000
     11 C6           1.3330     0.2900    -0.1990 cd         1 MBL       0.316500
     12 C3           2.7060    -0.1750    -0.0210 ca         1 MBL      -0.100500
     13 C1           3.0530    -1.5140    -0.2300 ca         1 MBL      -0.096000
     14 C5           3.7100     0.7140     0.3680 ca         1 MBL      -0.096000
     15 C4           5.0170     0.2810     0.5390 ca         1 MBL      -0.115500
     16 C2           5.3510    -1.0490     0.3250 ca         1 MBL      -0.112000
     17 C            4.3590    -1.9450    -0.0600 ca         1 MBL      -0.115500
     18 H1          -2.0180     2.6480     0.2880 hn         1 MBL       0.452500
     19 H2          -0.6220     3.5290     0.4080 hn         1 MBL       0.452500
     20 H3          -2.5800     1.0850    -1.5200 h1         1 MBL       0.064700
     21 H4          -2.1480    -0.5910    -1.7810 h1         1 MBL       0.064700
     22 H5          -2.5690    -1.0830     0.6390 hc         1 MBL       0.048700
     23 H6          -3.0330     0.5860     0.9040 hc         1 MBL       0.048700
     24 H7          -4.9020     0.3290    -0.7480 hc         1 MBL       0.041200
     25 H8          -4.4400    -1.3410    -1.0080 hc         1 MBL       0.041200
     26 H9          -4.8730    -1.8330     1.4080 hc         1 MBL       0.039700
     27 H10         -5.3420    -0.1680     1.6640 hc         1 MBL       0.039700
     28 H11         -7.3530    -1.6130     1.3570 hc         1 MBL       0.034033
     29 H12         -7.2460    -0.4480     0.0420 hc         1 MBL       0.034033
     30 H13         -6.7680    -2.1230    -0.2230 hc         1 MBL       0.034033
     31 H14          0.1240    -1.4210    -0.9960 h4         1 MBL       0.157000
     32 H15          2.2960    -2.2320    -0.5230 ha         1 MBL       0.118000
     33 H16          3.4610     1.7540     0.5370 ha         1 MBL       0.118000
     34 H17          5.7800     0.9890     0.8380 ha         1 MBL       0.109000
     35 H18          6.3710    -1.3860     0.4590 ha         1 MBL       0.110000
     36 H19          4.6030    -2.9860    -0.2280 ha         1 MBL       0.109000
@<TRIPOS>BOND
     1     1     2 1   
     2     1    18 1   
     3     1    19 1   
     4     2     3 1   
     5     2    10 2   
     6     3     4 1   
     7     3     9 1   
     8     4     5 1   
     9     4    20 1   
    10     4    21 1   
    11     5     6 1   
    12     5    22 1   
    13     5    23 1   
    14     6     7 1   
    15     6    24 1   
    16     6    25 1   
    17     7     8 1   
    18     7    26 1   
    19     7    27 1   
    20     8    28 1   
    21     8    29 1   
    22     8    30 1   
    23     9    11 2   
    24     9    31 1   
    25    10    11 1   
    26    11    12 1   
    27    12    13 ar  
    28    12    14 ar  
    29    13    17 ar  
    30    13    32 1   
    31    14    15 ar  
    32    14    33 1   
    33    15    16 ar  
    34    15    34 1   
    35    16    17 ar  
    36    16    35 1   
    37    17    36 1   
@<TRIPOS>SUBSTRUCTURE
     1 MBL         1 TEMP              0 ****  ****    0 ROOT
