@<TRIPOS>MOLECULE
MBN
   15    15     1     0     0
SMALL
No Charge or Current Charge


@<TRIPOS>ATOM
      1 C            0.0030     0.0210     2.4700 c3         1 MBN      -0.046800
      2 C1           0.0090     0.0010     0.9490 ca         1 MBN      -0.075300
      3 C2           1.2280     0.0030     0.2440 ca         1 MBN      -0.111000
      4 C3           1.2340    -0.0120    -1.1620 ca         1 MBN      -0.108000
      5 C4           0.0210    -0.0280    -1.8700 ca         1 MBN      -0.114000
      6 C5          -1.1990    -0.0280    -1.1720 ca         1 MBN      -0.108000
      7 C6          -1.2040    -0.0130     0.2340 ca         1 MBN      -0.111000
      8 H1           0.8890    -0.4790     2.8810 hc         1 MBN       0.041367
      9 H2A         -0.0050     1.0510     2.8470 hc         1 MBN       0.041367
     10 H3A         -0.8790    -0.4900     2.8740 hc         1 MBN       0.041367
     11 H2           2.1720     0.0170     0.7850 ha         1 MBN       0.109000
     12 H3           2.1790    -0.0110    -1.7020 ha         1 MBN       0.111000
     13 H4           0.0250    -0.0400    -2.9580 ha         1 MBN       0.111000
     14 H5          -2.1390    -0.0390    -1.7190 ha         1 MBN       0.111000
     15 H6          -2.1520    -0.0110     0.7680 ha         1 MBN       0.109000
@<TRIPOS>BOND
     1     1     2 1   
     2     1     8 1   
     3     1     9 1   
     4     1    10 1   
     5     2     3 ar  
     6     2     7 ar  
     7     3     4 ar  
     8     3    11 1   
     9     4     5 ar  
    10     4    12 1   
    11     5     6 ar  
    12     5    13 1   
    13     6     7 ar  
    14     6    14 1   
    15     7    15 1   
@<TRIPOS>SUBSTRUCTURE
     1 MBN         1 TEMP              0 ****  ****    0 ROOT
