@<TRIPOS>MOLECULE
MBN
   15    15     1     0     0
SMALL
bcc


@<TRIPOS>ATOM
      1 C            0.0030     0.0240     2.4500 c3         1 MBN      -0.046800
      2 C1           0.0090    -0.0110     0.9490 ca         1 MBN      -0.075300
      3 C2           1.2080    -0.0040     0.2390 ca         1 MBN      -0.129000
      4 C3           1.2170    -0.0060    -1.1490 ca         1 MBN      -0.126000
      5 C4           0.0200    -0.0180    -1.8550 ca         1 MBN      -0.132000
      6 C5          -1.1820    -0.0290    -1.1600 ca         1 MBN      -0.126000
      7 C6          -1.1840    -0.0260     0.2290 ca         1 MBN      -0.129000
      8 H1           0.8740    -0.4820     2.8660 hc         1 MBN       0.041367
      9 H2A          0.0210     1.0520     2.8170 hc         1 MBN       0.041367
     10 H3A         -0.8890    -0.4500     2.8590 hc         1 MBN       0.041367
     11 H2           2.1480     0.0010     0.7800 ha         1 MBN       0.127000
     12 H3           2.1600    -0.0020    -1.6820 ha         1 MBN       0.129000
     13 H4           0.0250    -0.0220    -2.9370 ha         1 MBN       0.129000
     14 H5          -2.1200    -0.0430    -1.6990 ha         1 MBN       0.129000
     15 H6          -2.1280    -0.0410     0.7620 ha         1 MBN       0.127000
@<TRIPOS>BOND
     1     1     2 1   
     2     1     8 1   
     3     1     9 1   
     4     1    10 1   
     5     2     3 ar  
     6     2     7 ar  
     7     3     4 ar  
     8     3    11 1   
     9     4     5 ar  
    10     4    12 1   
    11     5     6 ar  
    12     5    13 1   
    13     6     7 ar  
    14     6    14 1   
    15     7    15 1   
@<TRIPOS>SUBSTRUCTURE
     1 MBN         1 TEMP              0 ****  ****    0 ROOT
