@<TRIPOS>MOLECULE
MBP
   30    31     1     0     0
SMALL
No Charge or Current Charge


@<TRIPOS>ATOM
      1 C2           1.9620     0.3090    -2.2290 ca         1 MBP       0.395900
      2 C4          -0.0710     0.0620    -3.2230 ca         1 MBP       0.290000
      3 C5          -0.6240    -0.0590    -1.9790 ca         1 MBP      -0.268200
      4 C9          -0.4730    -0.2120     2.9020 c          1 MBP       0.569100
      5 O4          -1.6900    -0.3790     2.8740 o          1 MBP      -0.490100
      6 C3          -0.1550     1.0490     5.1040 c3         1 MBP      -0.083100
      7 C7           0.3010    -0.1530     4.2400 c3         1 MBP      -0.161700
      8 C12          0.1970    -1.4920     5.0110 c3         1 MBP      -0.083100
      9 N9          -1.0590    -0.0400    -4.1900 nc         1 MBP      -0.655700
     10 N3           1.2520     0.2510    -3.3710 nb         1 MBP      -0.214000
     11 N2           3.2980     0.5000    -2.3510 nv         1 MBP      -1.049900
     12 N1           1.5110     0.2030    -0.9700 nb         1 MBP      -0.336000
     13 C6           0.1810     0.0130    -0.8330 ca         1 MBP       0.420300
     14 O6          -0.4100    -0.1130     0.4050 os         1 MBP      -0.437300
     15 C60          0.3800    -0.0470     1.6220 c3         1 MBP       0.058600
     16 N7          -1.9790    -0.2430    -2.0940 na         1 MBP      -0.272600
     17 C8          -2.1910    -0.2230    -3.4760 cd         1 MBP       0.436700
     18 H3'1         0.4440     1.1170     6.0200 hc         1 MBP       0.043700
     19 H3'2        -0.0380     1.9890     4.5510 hc         1 MBP       0.043700
     20 H3'3        -1.2090     0.9490     5.3910 hc         1 MBP       0.043700
     21 H2           1.3610     0.0030     4.0030 hc         1 MBP       0.058700
     22 H121        -0.8410    -1.7030     5.2940 hc         1 MBP       0.043700
     23 H122         0.5600    -2.3230     4.3940 hc         1 MBP       0.043700
     24 H123         0.8020    -1.4600     5.9260 hc         1 MBP       0.043700
     25 H2N1         3.6670     0.8020    -3.2500 hn         1 MBP       0.487000
     26 H2N2         3.8310     0.7570    -1.5240 hn         1 MBP       0.487000
     27 H601         0.8980     0.9170     1.6980 h1         1 MBP       0.072700
     28 H602         1.1410    -0.8380     1.6340 h1         1 MBP       0.072700
     29 H7          -2.6770    -0.3650    -1.3680 hn         1 MBP       0.373000
     30 H8          -3.1860    -0.3470    -3.8890 h5         1 MBP       0.066800
@<TRIPOS>BOND
     1     1    10 ar  
     2     1    11 1   
     3     1    12 ar  
     4     2     3 ar  
     5     2     9 1   
     6     2    10 ar  
     7     3    13 ar  
     8     3    16 1   
     9     4     5 2   
    10     4     7 1   
    11     4    15 1   
    12     6     7 1   
    13     6    18 1   
    14     6    19 1   
    15     6    20 1   
    16     7     8 1   
    17     7    21 1   
    18     8    22 1   
    19     8    23 1   
    20     8    24 1   
    21     9    17 2   
    22    11    25 1   
    23    11    26 1   
    24    12    13 ar  
    25    13    14 1   
    26    14    15 1   
    27    15    27 1   
    28    15    28 1   
    29    16    17 1   
    30    16    29 1   
    31    17    30 1   
@<TRIPOS>SUBSTRUCTURE
     1 MBP         1 TEMP              0 ****  ****    0 ROOT
