@<TRIPOS>MOLECULE
MBP
   30    31     1     0     0
SMALL
abcg2


@<TRIPOS>ATOM
      1 C2           1.9270     0.1240    -2.0970 ca         1 MBP       0.395900
      2 C4          -0.0680    -0.0330    -3.0810 ca         1 MBP       0.290000
      3 C5          -0.6990    -0.0780    -1.8390 ca         1 MBP      -0.268200
      4 C9          -0.4740     0.1010     2.8620 c          1 MBP       0.569100
      5 O4          -1.6790     0.1140     2.8160 o          1 MBP      -0.490100
      6 C3          -0.3760     0.8780     5.2510 c3         1 MBP      -0.083100
      7 C7           0.3090     0.0720     4.1550 c3         1 MBP      -0.161700
      8 C12          0.5020    -1.3910     4.5740 c3         1 MBP      -0.083100
      9 N9          -0.9970    -0.1020    -4.0760 nc         1 MBP      -0.655700
     10 N3           1.2540     0.0700    -3.2350 nb         1 MBP      -0.214000
     11 N2           3.2810     0.1790    -2.1590 nv         1 MBP      -1.049900
     12 N1           1.4050     0.0960    -0.8500 nb         1 MBP      -0.336000
     13 C6           0.1090    -0.0030    -0.7090 ca         1 MBP       0.420300
     14 O6          -0.4560    -0.0280     0.4900 os         1 MBP      -0.437300
     15 C60          0.3820     0.0940     1.6200 c3         1 MBP       0.058600
     16 N7          -2.0390    -0.1760    -2.1110 na         1 MBP      -0.272600
     17 C8          -2.1480    -0.1860    -3.4500 cd         1 MBP       0.436700
     18 H3'1         0.2440     0.8880     6.1470 hc         1 MBP       0.043700
     19 H3'2        -0.5400     1.9120     4.9490 hc         1 MBP       0.043700
     20 H3'3        -1.3400     0.4440     5.5170 hc         1 MBP       0.043700
     21 H2           1.2990     0.4980     3.9610 hc         1 MBP       0.058700
     22 H121        -0.4560    -1.8590     4.8080 hc         1 MBP       0.043700
     23 H122         0.9880    -1.9840     3.7990 hc         1 MBP       0.043700
     24 H123         1.1270    -1.4400     5.4650 hc         1 MBP       0.043700
     25 H2N1         3.6950     0.4440    -3.0370 hn         1 MBP       0.487000
     26 H2N2         3.7740     0.4800    -1.3350 hn         1 MBP       0.487000
     27 H601         0.9590     1.0250     1.5960 h1         1 MBP       0.072700
     28 H602         1.1100    -0.7220     1.6740 h1         1 MBP       0.072700
     29 H7          -2.7990    -0.2340    -1.4520 hn         1 MBP       0.373000
     30 H8          -3.1110    -0.2580    -3.9330 h5         1 MBP       0.066800
@<TRIPOS>BOND
     1     1    10 ar  
     2     1    11 1   
     3     1    12 ar  
     4     2     3 ar  
     5     2     9 1   
     6     2    10 ar  
     7     3    13 ar  
     8     3    16 1   
     9     4     5 2   
    10     4     7 1   
    11     4    15 1   
    12     6     7 1   
    13     6    18 1   
    14     6    19 1   
    15     6    20 1   
    16     7     8 1   
    17     7    21 1   
    18     8    22 1   
    19     8    23 1   
    20     8    24 1   
    21     9    17 2   
    22    11    25 1   
    23    11    26 1   
    24    12    13 ar  
    25    13    14 1   
    26    14    15 1   
    27    15    27 1   
    28    15    28 1   
    29    16    17 1   
    30    16    29 1   
    31    17    30 1   
@<TRIPOS>SUBSTRUCTURE
     1 MBP         1 TEMP              0 ****  ****    0 ROOT
