@<TRIPOS>MOLECULE
MBR
    5     4     1     0     0
SMALL
No Charge or Current Charge


@<TRIPOS>ATOM
      1 C1          -0.0270     0.6190     0.0250 c3         1 MBR       0.416300
      2 Br2         -1.9170     0.0010    -0.0890 br         1 MBR      -0.182000
      3 Br1          0.8340    -0.1220     1.6600 br         1 MBR      -0.182000
      4 Br3          0.9770     0.0420    -1.5960 br         1 MBR      -0.182000
      5 H1          -0.0140     1.7100     0.0800 h3         1 MBR       0.130700
@<TRIPOS>BOND
     1     1     2 1   
     2     1     3 1   
     3     1     4 1   
     4     1     5 1   
@<TRIPOS>SUBSTRUCTURE
     1 MBR         1 TEMP              0 ****  ****    0 ROOT
