@<TRIPOS>MOLECULE
MBR
    5     4     1     0     0
SMALL
abcg2


@<TRIPOS>ATOM
      1 C1          -0.0280     0.5930     0.0230 c3         1 MBR       0.416300
      2 BR2         -1.8630     0.0190    -0.0860 br         1 MBR      -0.182000
      3 BR1          0.8100    -0.1010     1.6130 br         1 MBR      -0.182000
      4 BR3          0.9480     0.0590    -1.5490 br         1 MBR      -0.182000
      5 H1          -0.0140     1.6810     0.0790 h3         1 MBR       0.130700
@<TRIPOS>BOND
     1     1     2 1   
     2     1     3 1   
     3     1     4 1   
     4     1     5 1   
@<TRIPOS>SUBSTRUCTURE
     1 MBR         1 TEMP              0 ****  ****    0 ROOT
