@<TRIPOS>MOLECULE
MBS
   48    49     1     0     0
SMALL
abcg2


@<TRIPOS>ATOM
      1 C5           3.9220    -0.0560     2.4420 c3         1 MBS       0.146900
      2 O6           3.7500    -0.2460     1.0590 os         1 MBS      -0.444000
      3 C16          2.4420     0.0680     0.6510 c3         1 MBS       0.259700
      4 C12          2.2980    -0.1770    -0.7770 c1         1 MBS      -0.224100
      5 C4           2.1590    -0.3750    -1.9560 c1         1 MBS      -0.047100
      6 C3           1.9960    -0.6420    -3.3770 c3         1 MBS       0.011700
      7 C2           0.5290    -0.6140    -3.8260 c3         1 MBS       0.049500
      8 C1           0.4400    -0.9930    -5.3300 c          1 MBS       0.714000
      9 O2           0.7850    -2.1540    -5.6060 o          1 MBS      -0.708500
     10 O1           0.0670    -0.0990    -6.1090 o          1 MBS      -0.708500
     11 N1          -0.0430     0.7040    -3.5740 n7         1 MBS      -0.844300
     12 S11         -1.5830     0.7840    -2.9920 sy         1 MBS       1.133600
     13 O3          -2.0240     2.1520    -3.2340 o          1 MBS      -0.560000
     14 O4          -2.4230    -0.3090    -3.4720 o          1 MBS      -0.560000
     15 C21         -1.3540     0.5520    -1.2560 ca         1 MBS      -0.247500
     16 C22         -0.8570     1.6050    -0.4980 ca         1 MBS      -0.004500
     17 C23         -0.6960     1.4420     0.8640 ca         1 MBS      -0.133000
     18 C24         -1.0030     0.2290     1.4900 cp         1 MBS       0.001000
     19 C25         -1.4960    -0.8120     0.7030 ca         1 MBS      -0.133000
     20 C26         -1.6820    -0.6550    -0.6610 ca         1 MBS      -0.004500
     21 C6          -0.7930     0.0490     2.9380 cp         1 MBS      -0.065000
     22 C32         -1.6060    -0.8060     3.6910 ca         1 MBS      -0.063500
     23 C33         -1.3970    -0.9910     5.0420 ca         1 MBS      -0.176000
     24 C34         -0.3550    -0.3250     5.6930 ca         1 MBS       0.136100
     25 C35          0.4640     0.5320     4.9610 ca         1 MBS      -0.176000
     26 C36          0.2350     0.7100     3.6040 ca         1 MBS      -0.063500
     27 O5          -0.2200    -0.5670     7.0070 os         1 MBS      -0.344100
     28 C7           0.8230     0.0820     7.7110 c3         1 MBS       0.150900
     29 H51          4.9580    -0.2870     2.6850 h1         1 MBS       0.020700
     30 H52          3.7190     0.9800     2.7440 h1         1 MBS       0.020700
     31 H53          3.2710    -0.7120     3.0320 h1         1 MBS       0.020700
     32 H161         1.7040    -0.5350     1.1990 h1         1 MBS       0.027700
     33 H162         2.2040     1.1200     0.8670 h1         1 MBS       0.027700
     34 H31          2.5700     0.0860    -3.9580 hc         1 MBS       0.073200
     35 H32          2.4080    -1.6260    -3.6110 hc         1 MBS       0.073200
     36 H21         -0.0090    -1.3680    -3.2470 h1         1 MBS       0.052700
     37 HN1          0.0080     1.2630    -4.4270 hn         1 MBS       0.507000
     38 H221        -0.6070     2.5520    -0.9570 ha         1 MBS       0.138500
     39 H231        -0.3400     2.2810     1.4470 ha         1 MBS       0.107000
     40 H251        -1.7270    -1.7710     1.1490 ha         1 MBS       0.107000
     41 H261        -2.0750    -1.4780    -1.2430 ha         1 MBS       0.138500
     42 H321        -2.4320    -1.3230     3.2200 ha         1 MBS       0.117500
     43 H331        -2.0440    -1.6490     5.6070 ha         1 MBS       0.118000
     44 H351         1.2860     1.0630     5.4220 ha         1 MBS       0.118000
     45 H361         0.9000     1.3680     3.0580 ha         1 MBS       0.117500
     46 H71          0.7480    -0.2470     8.7440 h1         1 MBS       0.038367
     47 H72          1.8070    -0.1920     7.3240 h1         1 MBS       0.038367
     48 H73          0.7200     1.1690     7.6790 h1         1 MBS       0.038367
@<TRIPOS>BOND
     1     1     2 1   
     2     1    29 1   
     3     1    30 1   
     4     1    31 1   
     5     2     3 1   
     6     3     4 1   
     7     3    32 1   
     8     3    33 1   
     9     4     5 3   
    10     5     6 1   
    11     6     7 1   
    12     6    34 1   
    13     6    35 1   
    14     7     8 1   
    15     7    11 1   
    16     7    36 1   
    17     8     9 1   
    18     8    10 1   
    19    11    12 1   
    20    11    37 1   
    21    12    13 2   
    22    12    14 2   
    23    12    15 1   
    24    15    16 ar  
    25    15    20 ar  
    26    16    17 ar  
    27    16    38 1   
    28    17    18 ar  
    29    17    39 1   
    30    18    19 ar  
    31    18    21 1   
    32    19    20 ar  
    33    19    40 1   
    34    20    41 1   
    35    21    22 ar  
    36    21    26 ar  
    37    22    23 ar  
    38    22    42 1   
    39    23    24 ar  
    40    23    43 1   
    41    24    25 ar  
    42    24    27 1   
    43    25    26 ar  
    44    25    44 1   
    45    26    45 1   
    46    27    28 1   
    47    28    46 1   
    48    28    47 1   
    49    28    48 1   
@<TRIPOS>SUBSTRUCTURE
     1 MBS         1 TEMP              0 ****  ****    0 ROOT
