@<TRIPOS>MOLECULE
MBS
   48    49     1     0     0
SMALL
No Charge or Current Charge


@<TRIPOS>ATOM
      1 C5           3.8390    -0.1640     2.6200 c3         1 MBS       0.146900
      2 O6           3.6780    -0.3010     1.1990 os         1 MBS      -0.444000
      3 C16          2.3450    -0.0460     0.7350 c3         1 MBS       0.259700
      4 C12          2.3030    -0.2350    -0.7180 c1         1 MBS      -0.224100
      5 C4           2.2130    -0.3890    -1.9140 c1         1 MBS      -0.047100
      6 C3           2.0370    -0.5950    -3.3610 c3         1 MBS       0.011700
      7 C2           0.5450    -0.5970    -3.7790 c3         1 MBS       0.049500
      8 C1           0.3760    -1.1750    -5.2300 c          1 MBS       0.714000
      9 O2           0.3150    -2.3880    -5.3750 o          1 MBS      -0.708500
     10 O1           0.2440    -0.3750    -6.1510 o          1 MBS      -0.708500
     11 N1          -0.0340     0.7840    -3.6320 n7         1 MBS      -0.844300
     12 S11         -1.6170     0.9310    -3.1320 sy         1 MBS       1.133600
     13 O3          -1.9580     2.3310    -3.3990 o          1 MBS      -0.560000
     14 O4          -2.3530    -0.1790    -3.7440 o          1 MBS      -0.560000
     15 C21         -1.4240     0.6880    -1.3600 ca         1 MBS      -0.247500
     16 C22         -1.0510     1.7690    -0.5390 ca         1 MBS      -0.004500
     17 C23         -0.8540     1.5730     0.8380 ca         1 MBS      -0.133000
     18 C24         -1.0160     0.2950     1.4310 cp         1 MBS       0.001000
     19 C25         -1.3950    -0.7780     0.5860 ca         1 MBS      -0.133000
     20 C26         -1.5990    -0.5880    -0.7920 ca         1 MBS      -0.004500
     21 C6          -0.7640     0.0790     2.8920 cp         1 MBS      -0.065000
     22 C32         -1.5020    -0.8800     3.6310 ca         1 MBS      -0.063500
     23 C33         -1.2520    -1.0930     4.9970 ca         1 MBS      -0.176000
     24 C34         -0.2600    -0.3580     5.6630 ca         1 MBS       0.136100
     25 C35          0.4860     0.6030     4.9480 ca         1 MBS      -0.176000
     26 C36          0.2330     0.8160     3.5820 ca         1 MBS      -0.063500
     27 O5          -0.0580    -0.6120     7.0040 os         1 MBS      -0.344100
     28 C7           0.9370     0.0850     7.7750 c3         1 MBS       0.150900
     29 H51          4.8760    -0.3760     2.9090 h1         1 MBS       0.020700
     30 H52          3.5940     0.8560     2.9430 h1         1 MBS       0.020700
     31 H53          3.1840    -0.8640     3.1550 h1         1 MBS       0.020700
     32 H161         1.6320    -0.7370     1.2040 h1         1 MBS       0.027700
     33 H162         2.0400     0.9820     0.9700 h1         1 MBS       0.027700
     34 H31          2.5820     0.1800    -3.9130 hc         1 MBS       0.073200
     35 H32          2.4910    -1.5570    -3.6270 hc         1 MBS       0.073200
     36 H21          0.0300    -1.2990    -3.1090 h1         1 MBS       0.052700
     37 HN1         -0.1180     1.1620    -4.5780 hn         1 MBS       0.507000
     38 H221        -0.9020     2.7600    -0.9650 ha         1 MBS       0.138500
     39 H231        -0.5740     2.4250     1.4510 ha         1 MBS       0.107000
     40 H251        -1.5100    -1.7780     0.9950 ha         1 MBS       0.107000
     41 H261        -1.8750    -1.4370    -1.4150 ha         1 MBS       0.138500
     42 H321        -2.2840    -1.4570     3.1440 ha         1 MBS       0.117500
     43 H331        -1.8320    -1.8320     5.5440 ha         1 MBS       0.118000
     44 H351         1.2630     1.1880     5.4310 ha         1 MBS       0.118000
     45 H361         0.8290     1.5540     3.0510 ha         1 MBS       0.117500
     46 H71          0.9300    -0.2700     8.8130 h1         1 MBS       0.038367
     47 H72          1.9400    -0.0860     7.3630 h1         1 MBS       0.038367
     48 H73          0.7380     1.1640     7.7830 h1         1 MBS       0.038367
@<TRIPOS>BOND
     1     1     2 1   
     2     1    29 1   
     3     1    30 1   
     4     1    31 1   
     5     2     3 1   
     6     3     4 1   
     7     3    32 1   
     8     3    33 1   
     9     4     5 3   
    10     5     6 1   
    11     6     7 1   
    12     6    34 1   
    13     6    35 1   
    14     7     8 1   
    15     7    11 1   
    16     7    36 1   
    17     8     9 1   
    18     8    10 1   
    19    11    12 1   
    20    11    37 1   
    21    12    13 2   
    22    12    14 2   
    23    12    15 1   
    24    15    16 ar  
    25    15    20 ar  
    26    16    17 ar  
    27    16    38 1   
    28    17    18 ar  
    29    17    39 1   
    30    18    19 ar  
    31    18    21 1   
    32    19    20 ar  
    33    19    40 1   
    34    20    41 1   
    35    21    22 ar  
    36    21    26 ar  
    37    22    23 ar  
    38    22    42 1   
    39    23    24 ar  
    40    23    43 1   
    41    24    25 ar  
    42    24    27 1   
    43    25    26 ar  
    44    25    44 1   
    45    26    45 1   
    46    27    28 1   
    47    28    46 1   
    48    28    47 1   
    49    28    48 1   
@<TRIPOS>SUBSTRUCTURE
     1 MBS         1 TEMP              0 ****  ****    0 ROOT
