@<TRIPOS>MOLECULE
MBU
   71    76     1     0     0
SMALL
abcg2


@<TRIPOS>ATOM
      1 C10        -16.7970   -25.5210   -20.6440 c3         1 MBU       0.122900
      2 C13        -14.6550   -27.7090   -20.4010 c3         1 MBU      -0.124400
      3 C15        -13.6780   -24.4570   -19.2410 cc         1 MBU       0.231900
      4 C17        -21.1280   -22.5960   -23.6800 c3         1 MBU       0.294700
      5 C20        -19.5520   -18.1570   -22.6680 c3         1 MBU       0.080600
      6 C21        -18.3040   -17.4030   -23.0820 c3         1 MBU      -0.114100
      7 C22        -17.1930   -25.9610   -28.8380 cx         1 MBU      -0.124900
      8 C24        -16.1730   -25.7950   -29.9260 cx         1 MBU      -0.124900
      9 C26        -13.2960   -22.1070   -29.6930 ca         1 MBU       0.334900
     10 C28        -13.0020   -23.5540   -27.4370 ca         1 MBU      -0.149000
     11 C01        -16.2260   -22.7420   -26.4350 c6         1 MBU       0.105000
     12 C02        -15.2630   -24.5780   -27.8350 c3         1 MBU       0.091400
     13 C03        -15.8940   -24.9840   -25.5140 c          1 MBU       0.582600
     14 C04        -16.5380   -24.4560   -24.2740 ca         1 MBU      -0.153600
     15 C05        -17.3310   -23.3060   -24.3030 ca         1 MBU      -0.008300
     16 C06        -17.4890   -22.6010   -25.6150 c6         1 MBU      -0.058100
     17 C07        -17.9560   -22.8820   -23.1300 ca         1 MBU      -0.027000
     18 C08        -17.7780   -23.6120   -21.9570 ca         1 MBU      -0.049000
     19 C09        -16.9900   -24.7540   -21.9250 ca         1 MBU      -0.134300
     20 C11        -16.3750   -25.1720   -23.0960 ca         1 MBU      -0.022000
     21 C12        -14.4870   -26.2880   -19.9940 cd         1 MBU       0.408800
     22 C14        -14.9540   -24.1720   -19.6230 cd         1 MBU      -0.231000
     23 C16        -20.1630   -21.5200   -23.3400 cc         1 MBU       0.141300
     24 C18        -18.7860   -21.6650   -23.1060 cc         1 MBU      -0.116000
     25 C19        -18.3770   -20.3770   -22.8400 cd         1 MBU      -0.161000
     26 C23        -16.3340   -24.7360   -28.8820 cx         1 MBU      -0.125700
     27 C25        -12.1400   -21.9490   -28.9550 ca         1 MBU      -0.165000
     28 C27        -14.1370   -23.6430   -28.2410 ca         1 MBU       0.331300
     29 C29        -11.9750   -22.6900   -27.7850 ca         1 MBU      -0.038300
     30 C30        -10.7450   -22.5420   -26.9440 c3         1 MBU      -0.053800
     31 F01        -20.8020   -23.2060   -24.8290 f          1 MBU      -0.106667
     32 F02        -22.3710   -22.1340   -23.8110 f          1 MBU      -0.106667
     33 F03        -21.1500   -23.5500   -22.7380 f          1 MBU      -0.106667
     34 N01        -15.8300   -24.1370   -26.5630 n          1 MBU      -0.401800
     35 N02        -13.3980   -25.7740   -19.4750 nc         1 MBU      -0.676000
     36 N03        -15.4630   -25.3510   -20.1020 na         1 MBU      -0.169500
     37 N04        -20.5540   -20.2660   -23.2290 nd         1 MBU      -0.469800
     38 N05        -19.4620   -19.5870   -22.9320 na         1 MBU       0.150800
     39 N06        -14.2820   -22.9320   -29.3480 nb         1 MBU      -0.665000
     40 H1         -17.5250   -25.2000   -19.8970 h1         1 MBU       0.068200
     41 H2         -16.9610   -26.5850   -20.8090 h1         1 MBU       0.068200
     42 H3         -13.7330   -28.2470   -20.1930 hc         1 MBU       0.054700
     43 H4         -15.4610   -28.1990   -19.8530 hc         1 MBU       0.054700
     44 H5         -14.8720   -27.8120   -21.4650 hc         1 MBU       0.054700
     45 H6         -12.9500   -23.7860   -18.8090 h4         1 MBU       0.035100
     46 H7         -19.7540   -18.0110   -21.6050 h1         1 MBU       0.074200
     47 H8         -20.4180   -17.7980   -23.2200 h1         1 MBU       0.074200
     48 H9         -18.4700   -16.3390   -22.9220 hc         1 MBU       0.052700
     49 H10        -17.4330   -17.6860   -22.4910 hc         1 MBU       0.052700
     50 H11        -18.0760   -17.5560   -24.1360 hc         1 MBU       0.052700
     51 H13        -16.9970   -26.6940   -28.0650 hc         1 MBU       0.073950
     52 H14        -15.2850   -26.4150   -29.8840 hc         1 MBU       0.073950
     53 H15        -16.5170   -25.5800   -30.9290 hc         1 MBU       0.073950
     54 H16        -13.4400   -21.5410   -30.6070 h4         1 MBU       0.018100
     55 H17        -12.9270   -24.1640   -26.5440 ha         1 MBU       0.132000
     56 H18        -15.4160   -22.1580   -25.9840 h1         1 MBU       0.054200
     57 H19        -16.3910   -22.3350   -27.4320 h1         1 MBU       0.054200
     58 H20        -14.8220   -25.5590   -27.6500 h1         1 MBU       0.095700
     59 H21        -17.7070   -21.5430   -25.4710 hc         1 MBU       0.072700
     60 H22        -18.3350   -23.0280   -26.1620 hc         1 MBU       0.072700
     61 H23        -18.2640   -23.2720   -21.0490 ha         1 MBU       0.120000
     62 H24        -15.7660   -26.0680   -23.0980 ha         1 MBU       0.142000
     63 H25        -15.5330   -23.2640   -19.5980 h4         1 MBU       0.153000
     64 H26        -17.3960   -19.9990   -22.6010 h4         1 MBU       0.165000
     65 H27        -16.8170   -23.8200   -29.2030 hc         1 MBU       0.088700
     66 H28        -11.3740   -21.2590   -29.2880 ha         1 MBU       0.122000
     67 H29        -10.7350   -21.5690   -26.4510 hc         1 MBU       0.049033
     68 H30        -10.6910   -23.3080   -26.1720 hc         1 MBU       0.049033
     69 H31         -9.8430   -22.6020   -27.5520 hc         1 MBU       0.049033
     70 O01        -15.4630   -26.1300   -25.5470 o          1 MBU      -0.569000
     71 H12        -18.2390   -25.8570   -29.0960 hc         1 MBU       0.073950
@<TRIPOS>BOND
     1     1    19 1   
     2     1    36 1   
     3     1    40 1   
     4     1    41 1   
     5     2    21 1   
     6     2    42 1   
     7     2    43 1   
     8     2    44 1   
     9     3    22 2   
    10     3    35 1   
    11     3    45 1   
    12     4    23 1   
    13     4    31 1   
    14     4    32 1   
    15     4    33 1   
    16     5     6 1   
    17     5    38 1   
    18     5    46 1   
    19     5    47 1   
    20     6    48 1   
    21     6    49 1   
    22     6    50 1   
    23     7     8 1   
    24     7    26 1   
    25     7    51 1   
    26     7    71 1   
    27     8    26 1   
    28     8    52 1   
    29     8    53 1   
    30     9    27 ar  
    31     9    39 ar  
    32     9    54 1   
    33    10    28 ar  
    34    10    29 ar  
    35    10    55 1   
    36    11    16 1   
    37    11    34 1   
    38    11    56 1   
    39    11    57 1   
    40    12    26 1   
    41    12    28 1   
    42    12    34 1   
    43    12    58 1   
    44    13    14 1   
    45    13    34 1   
    46    13    70 2   
    47    14    15 ar  
    48    14    20 ar  
    49    15    16 1   
    50    15    17 ar  
    51    16    59 1   
    52    16    60 1   
    53    17    18 ar  
    54    17    24 1   
    55    18    19 ar  
    56    18    61 1   
    57    19    20 ar  
    58    20    62 1   
    59    21    35 2   
    60    21    36 1   
    61    22    36 1   
    62    22    63 1   
    63    23    24 1   
    64    23    37 2   
    65    24    25 2   
    66    25    38 1   
    67    25    64 1   
    68    26    65 1   
    69    27    29 ar  
    70    27    66 1   
    71    28    39 ar  
    72    29    30 1   
    73    30    67 1   
    74    30    68 1   
    75    30    69 1   
    76    37    38 1   
@<TRIPOS>SUBSTRUCTURE
     1 MBU         1 TEMP              0 ****  ****    0 ROOT
