@<TRIPOS>MOLECULE
MBU
   71    76     1     0     0
SMALL
No Charge or Current Charge


@<TRIPOS>ATOM
      1 C10        -16.3430   -24.6660   -20.2510 c3         1 MBU       0.122900
      2 C13        -14.8250   -27.4360   -20.1150 c3         1 MBU      -0.124400
      3 C15        -12.7530   -24.5130   -19.7730 cc         1 MBU       0.231900
      4 C17        -21.0080   -22.6600   -24.8220 c3         1 MBU       0.294700
      5 C20        -20.6180   -18.5540   -22.1060 c3         1 MBU       0.080600
      6 C21        -19.8420   -17.4060   -22.7820 c3         1 MBU      -0.114100
      7 C22        -17.4100   -25.1790   -29.0190 cx         1 MBU      -0.124900
      8 C24        -16.2570   -25.3900   -29.9730 cx         1 MBU      -0.124900
      9 C26        -12.6440   -21.8380   -28.6530 ca         1 MBU       0.334900
     10 C28        -12.6850   -24.4640   -27.8520 ca         1 MBU      -0.149000
     11 C01        -16.4500   -22.5430   -26.4130 c6         1 MBU       0.105000
     12 C02        -15.2380   -24.3590   -27.7520 c3         1 MBU       0.091400
     13 C03        -15.6330   -24.5900   -25.2760 c          1 MBU       0.582600
     14 C04        -16.4110   -24.1190   -24.0630 ca         1 MBU      -0.153600
     15 C05        -17.4670   -23.1800   -24.1920 ca         1 MBU      -0.008300
     16 C06        -17.7370   -22.5880   -25.5820 c6         1 MBU      -0.058100
     17 C07        -18.1720   -22.7470   -23.0360 ca         1 MBU      -0.027000
     18 C08        -17.7640   -23.2190   -21.7720 ca         1 MBU      -0.049000
     19 C09        -16.7250   -24.1550   -21.6390 ca         1 MBU      -0.134300
     20 C11        -16.0660   -24.6160   -22.7910 ca         1 MBU      -0.022000
     21 C12        -14.2120   -26.0680   -19.9940 cd         1 MBU       0.408800
     22 C14        -13.9480   -23.8610   -19.9160 cd         1 MBU      -0.231000
     23 C16        -20.4340   -21.6100   -23.8740 cc         1 MBU       0.141300
     24 C18        -19.2800   -21.7800   -23.0620 cc         1 MBU      -0.116000
     25 C19        -19.1790   -20.6590   -22.2920 cd         1 MBU      -0.161000
     26 C23        -16.1970   -24.2800   -28.9470 cx         1 MBU      -0.125700
     27 C25        -11.4270   -22.5210   -28.5050 ca         1 MBU      -0.165000
     28 C27        -13.8670   -23.7150   -28.0270 ca         1 MBU       0.331300
     29 C29        -11.4380   -23.8650   -28.0960 ca         1 MBU      -0.038300
     30 C30        -10.1450   -24.6430   -27.9140 c3         1 MBU      -0.053800
     31 F01        -20.8300   -22.3170   -26.1190 f          1 MBU      -0.106667
     32 F02        -22.3420   -22.8070   -24.6420 f          1 MBU      -0.106667
     33 F03        -20.4660   -23.8870   -24.6440 f          1 MBU      -0.106667
     34 N01        -15.8710   -23.9000   -26.4800 n          1 MBU      -0.401800
     35 N02        -12.9140   -25.8700   -19.8200 nc         1 MBU      -0.676000
     36 N03        -14.8950   -24.8610   -20.0580 na         1 MBU      -0.169500
     37 N04        -21.0590   -20.4680   -23.6300 nd         1 MBU      -0.469800
     38 N05        -20.2770   -19.8780   -22.6500 na         1 MBU       0.150800
     39 N06        -13.8440   -22.4140   -28.4210 nb         1 MBU      -0.665000
     40 H1         -16.6890   -23.9530   -19.4910 h1         1 MBU       0.068200
     41 H2         -16.8650   -25.6130   -20.0640 h1         1 MBU       0.068200
     42 H3         -14.0580   -28.2190   -20.1190 hc         1 MBU       0.054700
     43 H4         -15.5010   -27.6340   -19.2760 hc         1 MBU       0.054700
     44 H5         -15.4000   -27.5260   -21.0440 hc         1 MBU       0.054700
     45 H6         -11.7680   -24.0840   -19.6370 h4         1 MBU       0.035100
     46 H7         -20.4010   -18.5560   -21.0300 h1         1 MBU       0.074200
     47 H8         -21.6950   -18.3890   -22.2290 h1         1 MBU       0.074200
     48 H9         -20.1280   -16.4420   -22.3450 hc         1 MBU       0.052700
     49 H10        -18.7610   -17.5380   -22.6490 hc         1 MBU       0.052700
     50 H11        -20.0580   -17.3750   -23.8570 hc         1 MBU       0.052700
     51 H13        -17.5530   -25.9080   -28.2250 hc         1 MBU       0.073950
     52 H14        -15.6300   -26.2660   -29.8220 hc         1 MBU       0.073950
     53 H15        -16.4020   -25.1100   -31.0130 hc         1 MBU       0.073950
     54 H16        -12.6600   -20.7950   -28.9680 h4         1 MBU       0.018100
     55 H17        -12.7410   -25.4990   -27.5260 ha         1 MBU       0.132000
     56 H18        -15.7250   -21.8640   -25.9400 h1         1 MBU       0.054200
     57 H19        -16.6710   -22.1510   -27.4140 h1         1 MBU       0.054200
     58 H20        -15.0390   -25.4320   -27.6310 h1         1 MBU       0.095700
     59 H21        -18.1520   -21.5740   -25.5130 hc         1 MBU       0.072700
     60 H22        -18.4620   -23.2120   -26.1170 hc         1 MBU       0.072700
     61 H23        -18.2860   -22.8740   -20.8830 ha         1 MBU       0.120000
     62 H24        -15.2620   -25.3430   -22.6980 ha         1 MBU       0.142000
     63 H25        -14.1800   -22.8030   -19.9290 h4         1 MBU       0.153000
     64 H26        -18.4310   -20.3430   -21.5750 h4         1 MBU       0.165000
     65 H27        -16.3240   -23.2690   -29.3260 hc         1 MBU       0.088700
     66 H28        -10.4920   -22.0060   -28.7040 ha         1 MBU       0.122000
     67 H29         -9.8010   -24.5890   -26.8750 hc         1 MBU       0.049033
     68 H30        -10.2780   -25.7010   -28.1690 hc         1 MBU       0.049033
     69 H31         -9.3470   -24.2480   -28.5530 hc         1 MBU       0.049033
     70 O01        -14.8740   -25.5500   -25.2210 o          1 MBU      -0.569000
     71 H12        -18.3300   -24.7560   -29.4170 hc         1 MBU       0.073950
@<TRIPOS>BOND
     1     1    19 1   
     2     1    36 1   
     3     1    40 1   
     4     1    41 1   
     5     2    21 1   
     6     2    42 1   
     7     2    43 1   
     8     2    44 1   
     9     3    22 2   
    10     3    35 1   
    11     3    45 1   
    12     4    23 1   
    13     4    31 1   
    14     4    32 1   
    15     4    33 1   
    16     5     6 1   
    17     5    38 1   
    18     5    46 1   
    19     5    47 1   
    20     6    48 1   
    21     6    49 1   
    22     6    50 1   
    23     7     8 1   
    24     7    26 1   
    25     7    51 1   
    26     7    71 1   
    27     8    26 1   
    28     8    52 1   
    29     8    53 1   
    30     9    27 ar  
    31     9    39 ar  
    32     9    54 1   
    33    10    28 ar  
    34    10    29 ar  
    35    10    55 1   
    36    11    16 1   
    37    11    34 1   
    38    11    56 1   
    39    11    57 1   
    40    12    26 1   
    41    12    28 1   
    42    12    34 1   
    43    12    58 1   
    44    13    14 1   
    45    13    34 1   
    46    13    70 2   
    47    14    15 ar  
    48    14    20 ar  
    49    15    16 1   
    50    15    17 ar  
    51    16    59 1   
    52    16    60 1   
    53    17    18 ar  
    54    17    24 1   
    55    18    19 ar  
    56    18    61 1   
    57    19    20 ar  
    58    20    62 1   
    59    21    35 2   
    60    21    36 1   
    61    22    36 1   
    62    22    63 1   
    63    23    24 1   
    64    23    37 2   
    65    24    25 2   
    66    25    38 1   
    67    25    64 1   
    68    26    65 1   
    69    27    29 ar  
    70    27    66 1   
    71    28    39 ar  
    72    29    30 1   
    73    30    67 1   
    74    30    68 1   
    75    30    69 1   
    76    37    38 1   
@<TRIPOS>SUBSTRUCTURE
     1 MBU         1 TEMP              0 ****  ****    0 ROOT
