@<TRIPOS>MOLECULE
MBV
   79    82     1     0     0
SMALL
bcc


@<TRIPOS>ATOM
      1 O1          18.3900   -12.1730     2.2660 o          1 MBV      -0.626500
      2 C1          17.2180   -12.4770     2.3630 c          1 MBV       0.705700
      3 N1          16.3880   -12.1740     3.4110 ns         1 MBV      -0.474100
      4 C4          15.1080   -12.6100     3.1730 cc         1 MBV       0.073600
      5 C2          16.3830   -13.2170     1.3870 cd         1 MBV      -0.211400
      6 C3          15.1250   -13.2730     1.8660 cc         1 MBV      -0.009200
      7 C1A         16.9540   -13.7470     0.1250 c3         1 MBV      -0.014900
      8 C2A         13.9260   -13.9170     1.2580 c3         1 MBV      -0.045200
      9 C5          14.0300   -12.4180     3.9640 cf         1 MBV      -0.217600
     10 C6          14.0240   -11.7580     5.2380 cd         1 MBV       0.519900
     11 N2          15.1150   -11.4540     5.9170 nc         1 MBV      -0.655300
     12 C9          14.6850   -10.8200     7.0650 cc         1 MBV       0.045600
     13 C7          12.8150   -11.3360     5.9300 cd         1 MBV      -0.175800
     14 C8          13.2400   -10.7170     7.0680 cc         1 MBV      -0.130200
     15 C1B         11.4030   -11.5280     5.4750 c3         1 MBV      -0.004200
     16 C6B         12.4230   -10.0900     8.1450 c3         1 MBV      -0.019900
     17 C10         15.5220   -10.4140     8.0730 cf         1 MBV       0.021800
     18 C11         16.9100   -10.6510     8.1390 cd         1 MBV      -0.134100
     19 N3          17.5660   -11.3870     7.1990 na         1 MBV      -0.132100
     20 C14         18.8920   -11.4610     7.4760 cd         1 MBV      -0.035100
     21 C12         17.8660   -10.2460     9.0810 cc         1 MBV      -0.134300
     22 C13         19.1140   -10.7400     8.6640 cc         1 MBV      -0.091300
     23 C6C         17.6160    -9.4450    10.3120 c3         1 MBV      -0.009800
     24 C1C         20.3670   -10.5180     9.4570 c3         1 MBV       0.011900
     25 C15         19.7910   -12.1800     6.6180 cf         1 MBV      -0.073200
     26 C16         19.4590   -13.1680     5.7580 cc         1 MBV       0.015600
     27 N4          18.2220   -13.7750     5.6130 ns         1 MBV      -0.491100
     28 C19         18.2640   -14.7430     4.6360 c          1 MBV       0.702700
     29 C17         20.3370   -13.7790     4.7610 cc         1 MBV       0.005800
     30 C18         19.6240   -14.6910     4.0700 cd         1 MBV      -0.216400
     31 C2D         21.7410   -13.3390     4.5140 c3         1 MBV      -0.046200
     32 C1D         20.0100   -15.5140     2.8990 c3         1 MBV      -0.013900
     33 O20         17.3470   -15.4840     4.3360 o          1 MBV      -0.632500
     34 C3A         13.6480   -15.3000     1.8490 c3         1 MBV      -0.078100
     35 C2B         10.9070   -10.4610     4.4900 c3         1 MBV      -0.199400
     36 C3B         11.3070   -10.6960     3.0220 c          1 MBV       0.925600
     37 O4B         11.0880   -11.8410     2.5670 o          1 MBV      -0.848800
     38 O5B         11.7710    -9.7270     2.3920 o          1 MBV      -0.848800
     39 C2C         21.7060   -10.6650     8.7460 c3         1 MBV      -0.208400
     40 C3C         22.2560   -12.0980     8.6120 c          1 MBV       0.920600
     41 O4C         23.1250   -12.2680     7.7280 o          1 MBV      -0.847800
     42 O5C         21.8370   -12.9560     9.4110 o          1 MBV      -0.847800
     43 C3D         21.8040   -12.1070     3.6110 c3         1 MBV      -0.079100
     44 HN1         16.6410   -11.6350     4.2230 hn         1 MBV       0.356500
     45 H1A1        16.1930   -14.2090    -0.5010 hc         1 MBV       0.034700
     46 H1A2        17.4360   -12.9580    -0.4550 hc         1 MBV       0.034700
     47 H1A3        17.7180   -14.5010     0.3270 hc         1 MBV       0.034700
     48 H2A1        13.0530   -13.2740     1.3960 hc         1 MBV       0.071700
     49 H2A2        14.0760   -14.0090     0.1810 hc         1 MBV       0.071700
     50 HC5         13.0720   -12.7360     3.5750 ha         1 MBV       0.192000
     51 H1B1        11.2770   -12.5140     5.0230 hc         1 MBV       0.032700
     52 H1B2        10.7590   -11.5240     6.3570 hc         1 MBV       0.032700
     53 H6B1        11.3990    -9.9170     7.8180 hc         1 MBV       0.030033
     54 H6B2        12.3810   -10.7190     9.0370 hc         1 MBV       0.030033
     55 H6B3        12.8340    -9.1270     8.4510 hc         1 MBV       0.030033
     56 H10         15.0790    -9.8900     8.9120 ha         1 MBV       0.125000
     57 HN3         17.0800   -11.6860     6.3620 hn         1 MBV       0.336700
     58 H6C1        18.2450    -8.5530    10.3350 hc         1 MBV       0.026700
     59 H6C2        16.5810    -9.1160    10.3860 hc         1 MBV       0.026700
     60 H6C3        17.8460   -10.0170    11.2130 hc         1 MBV       0.026700
     61 H1C1        20.3030    -9.5100     9.8750 hc         1 MBV       0.032200
     62 H1C2        20.3640   -11.1880    10.3220 hc         1 MBV       0.032200
     63 H15         20.8310   -11.8960     6.6430 ha         1 MBV       0.195000
     64 HN4         17.4920   -13.7590     6.3080 hn         1 MBV       0.335500
     65 H2D1        22.2940   -14.1570     4.0470 hc         1 MBV       0.070700
     66 H2D2        22.2450   -13.1290     5.4600 hc         1 MBV       0.070700
     67 H1D1        21.0860   -15.5050     2.7340 hc         1 MBV       0.035033
     68 H1D2        19.6930   -16.5510     3.0140 hc         1 MBV       0.035033
     69 H1D3        19.5360   -15.1310     1.9920 hc         1 MBV       0.035033
     70 H3A1        12.7900   -15.7590     1.3580 hc         1 MBV       0.030700
     71 H3A2        14.5070   -15.9600     1.7190 hc         1 MBV       0.030700
     72 H3A3        13.4310   -15.2430     2.9160 hc         1 MBV       0.030700
     73 H2B1         9.8120   -10.4550     4.5260 hc         1 MBV       0.019700
     74 H2B2        11.2310    -9.4730     4.8260 hc         1 MBV       0.019700
     75 H2C1        21.6880   -10.1690     7.7710 hc         1 MBV       0.019200
     76 H2C2        22.4510   -10.1080     9.3280 hc         1 MBV       0.019200
     77 H3D1        22.8390   -11.8110     3.4410 hc         1 MBV       0.033367
     78 H3D2        21.3420   -12.3070     2.6450 hc         1 MBV       0.033367
     79 H3D3        21.2820   -11.2610     4.0570 hc         1 MBV       0.033367
@<TRIPOS>BOND
     1     1     2 2   
     2     2     3 1   
     3     2     5 1   
     4     3     4 1   
     5     3    44 1   
     6     4     6 1   
     7     4     9 2   
     8     5     6 2   
     9     5     7 1   
    10     6     8 1   
    11     7    45 1   
    12     7    46 1   
    13     7    47 1   
    14     8    34 1   
    15     8    48 1   
    16     8    49 1   
    17     9    10 1   
    18     9    50 1   
    19    10    11 2   
    20    10    13 1   
    21    11    12 1   
    22    12    14 1   
    23    12    17 2   
    24    13    14 2   
    25    13    15 1   
    26    14    16 1   
    27    15    35 1   
    28    15    51 1   
    29    15    52 1   
    30    16    53 1   
    31    16    54 1   
    32    16    55 1   
    33    17    18 1   
    34    17    56 1   
    35    18    19 1   
    36    18    21 2   
    37    19    20 1   
    38    19    57 1   
    39    20    22 2   
    40    20    25 1   
    41    21    22 1   
    42    21    23 1   
    43    22    24 1   
    44    23    58 1   
    45    23    59 1   
    46    23    60 1   
    47    24    39 1   
    48    24    61 1   
    49    24    62 1   
    50    25    26 2   
    51    25    63 1   
    52    26    27 1   
    53    26    29 1   
    54    27    28 1   
    55    27    64 1   
    56    28    30 1   
    57    28    33 2   
    58    29    30 2   
    59    29    31 1   
    60    30    32 1   
    61    31    43 1   
    62    31    65 1   
    63    31    66 1   
    64    32    67 1   
    65    32    68 1   
    66    32    69 1   
    67    34    70 1   
    68    34    71 1   
    69    34    72 1   
    70    35    36 1   
    71    35    73 1   
    72    35    74 1   
    73    36    37 1   
    74    36    38 1   
    75    39    40 1   
    76    39    75 1   
    77    39    76 1   
    78    40    41 1   
    79    40    42 1   
    80    43    77 1   
    81    43    78 1   
    82    43    79 1   
@<TRIPOS>SUBSTRUCTURE
     1 MBV         1 TEMP              0 ****  ****    0 ROOT
