@<TRIPOS>MOLECULE
MBV
   79    82     1     0     0
SMALL
No Charge or Current Charge


@<TRIPOS>ATOM
      1 O1          18.0230   -11.8230     1.9940 o          1 MBV      -0.551000
      2 C1          16.9030   -12.2840     2.1510 c          1 MBV       0.563200
      3 N1          16.0480   -12.0280     3.1720 ns         1 MBV      -0.407100
      4 C4          14.8420   -12.6750     3.0910 cc         1 MBV       0.073600
      5 C2          16.1340   -13.2230     1.3110 cd         1 MBV      -0.211400
      6 C3          14.8920   -13.4460     1.8780 cc         1 MBV      -0.009200
      7 C1A         16.7290   -13.7910     0.0460 c3         1 MBV      -0.014900
      8 C2A         13.7750   -14.3260     1.3750 c3         1 MBV      -0.045200
      9 C5          13.8490   -12.5580     4.0210 cf         1 MBV      -0.267600
     10 C6          13.8270   -11.8340     5.2910 cd         1 MBV       0.519900
     11 N2          14.9710   -11.5550     5.9080 nc         1 MBV      -0.655300
     12 C9          14.6240   -10.9140     7.0720 cc         1 MBV       0.045600
     13 C7          12.6860   -11.3940     6.0390 cd         1 MBV      -0.175800
     14 C8          13.2040   -10.7990     7.1610 cc         1 MBV      -0.130200
     15 C1B         11.2300   -11.5720     5.6710 c3         1 MBV      -0.004200
     16 C6B         12.4770   -10.1500     8.3130 c3         1 MBV      -0.019900
     17 C10         15.5760   -10.4990     7.9710 cf         1 MBV      -0.028200
     18 C11         17.0280   -10.7300     7.9270 cd         1 MBV      -0.184800
     19 N3          17.6670   -11.4830     6.9500 na         1 MBV      -0.081000
     20 C14         19.0450   -11.5010     7.1430 cd         1 MBV      -0.085800
     21 C12         18.0180   -10.2770     8.7630 cc         1 MBV      -0.134300
     22 C13         19.2710   -10.7510     8.2730 cc         1 MBV      -0.091300
     23 C6C         17.8720    -9.4030     9.9870 c3         1 MBV      -0.009800
     24 C1C         20.6110   -10.4360     8.9060 c3         1 MBV       0.011900
     25 C15         20.0350   -12.1700     6.2920 cf         1 MBV      -0.123200
     26 C16         19.8530   -13.0940     5.2990 cc         1 MBV       0.015600
     27 N4          18.6850   -13.7870     5.0740 ns         1 MBV      -0.424100
     28 C19         18.7260   -14.6380     4.0150 c          1 MBV       0.560200
     29 C17         20.7680   -13.5300     4.2760 cc         1 MBV       0.005800
     30 C18         20.0930   -14.4500     3.4950 cd         1 MBV      -0.216400
     31 C2D         22.1820   -13.0300     4.1180 c3         1 MBV      -0.046200
     32 C1D         20.5670   -15.2080     2.2800 c3         1 MBV      -0.013900
     33 O20         17.8340   -15.3770     3.6320 o          1 MBV      -0.557000
     34 C3A         13.7230   -15.6880     2.0920 c3         1 MBV      -0.078100
     35 C2B         10.6250   -10.3720     4.9050 c3         1 MBV      -0.199400
     36 C3B         11.2560   -10.2260     3.5090 c          1 MBV       0.715000
     37 O4B         10.7870   -10.8900     2.5970 o          1 MBV      -0.743500
     38 O5B         12.2060    -9.4700     3.3760 o          1 MBV      -0.743500
     39 C2C         21.2670   -11.6260     9.6490 c3         1 MBV      -0.208400
     40 C3C         20.4760   -11.9950    10.9170 c          1 MBV       0.710000
     41 O4C         19.6410   -12.8830    10.8470 o          1 MBV      -0.742500
     42 O5C         20.7350   -11.3920    11.9480 o          1 MBV      -0.742500
     43 C3D         22.2530   -11.6520     3.4330 c3         1 MBV      -0.079100
     44 HN1         16.2930   -11.3860     3.9140 hn         1 MBV       0.356500
     45 H1A1        16.3610   -14.8070    -0.1430 hc         1 MBV       0.034700
     46 H1A2        16.4690   -13.1720    -0.8210 hc         1 MBV       0.034700
     47 H1A3        17.8230   -13.8450     0.1060 hc         1 MBV       0.034700
     48 H2A1        12.8120   -13.8160     1.4940 hc         1 MBV       0.071700
     49 H2A2        13.8930   -14.4970     0.2980 hc         1 MBV       0.071700
     50 HC5         12.9250   -13.0710     3.7780 ha         1 MBV       0.242000
     51 H1B1        11.0940   -12.4830     5.0750 hc         1 MBV       0.032700
     52 H1B2        10.6420   -11.7340     6.5820 hc         1 MBV       0.032700
     53 H6B1        11.4050   -10.0510     8.1120 hc         1 MBV       0.030033
     54 H6B2        12.5950   -10.7410     9.2290 hc         1 MBV       0.030033
     55 H6B3        12.8690    -9.1440     8.5040 hc         1 MBV       0.030033
     56 H10         15.1890    -9.9810     8.8460 ha         1 MBV       0.175000
     57 HN3         17.1670   -11.9060     6.1770 hn         1 MBV       0.387000
     58 H6C1        18.3150    -8.4150     9.8140 hc         1 MBV       0.026700
     59 H6C2        16.8220    -9.2530    10.2600 hc         1 MBV       0.026700
     60 H6C3        18.3730    -9.8530    10.8520 hc         1 MBV       0.026700
     61 H1C1        21.2990   -10.1020     8.1190 hc         1 MBV       0.032200
     62 H1C2        20.5320    -9.5870     9.5940 hc         1 MBV       0.032200
     63 H15         21.0530   -11.7890     6.3790 ha         1 MBV       0.245000
     64 HN4         17.8780   -13.7770     5.6820 hn         1 MBV       0.335500
     65 H2D1        22.7660   -13.7480     3.5290 hc         1 MBV       0.070700
     66 H2D2        22.6740   -12.9750     5.0960 hc         1 MBV       0.070700
     67 H1D1        21.0790   -16.1320     2.5710 hc         1 MBV       0.035033
     68 H1D2        19.7310   -15.4790     1.6240 hc         1 MBV       0.035033
     69 H1D3        21.2660   -14.6080     1.6860 hc         1 MBV       0.035033
     70 H3A1        12.9040   -16.3000     1.6940 hc         1 MBV       0.030700
     71 H3A2        14.6630   -16.2350     1.9490 hc         1 MBV       0.030700
     72 H3A3        13.5610   -15.5560     3.1690 hc         1 MBV       0.030700
     73 H2B1         9.5590   -10.6130     4.8080 hc         1 MBV       0.019700
     74 H2B2        10.8180    -9.4820     5.5180 hc         1 MBV       0.019700
     75 H2C1        21.2870   -12.4650     8.9420 hc         1 MBV       0.019200
     76 H2C2        22.2650   -11.2640     9.9250 hc         1 MBV       0.019200
     77 H3D1        23.2960   -11.3280     3.3290 hc         1 MBV       0.033367
     78 H3D2        21.8050   -11.6970     2.4330 hc         1 MBV       0.033367
     79 H3D3        21.7150   -10.8970     4.0180 hc         1 MBV       0.033367
@<TRIPOS>BOND
     1     1     2 2   
     2     2     3 1   
     3     2     5 1   
     4     3     4 1   
     5     3    44 1   
     6     4     6 1   
     7     4     9 2   
     8     5     6 2   
     9     5     7 1   
    10     6     8 1   
    11     7    45 1   
    12     7    46 1   
    13     7    47 1   
    14     8    34 1   
    15     8    48 1   
    16     8    49 1   
    17     9    10 1   
    18     9    50 1   
    19    10    11 2   
    20    10    13 1   
    21    11    12 1   
    22    12    14 1   
    23    12    17 2   
    24    13    14 2   
    25    13    15 1   
    26    14    16 1   
    27    15    35 1   
    28    15    51 1   
    29    15    52 1   
    30    16    53 1   
    31    16    54 1   
    32    16    55 1   
    33    17    18 1   
    34    17    56 1   
    35    18    19 1   
    36    18    21 2   
    37    19    20 1   
    38    19    57 1   
    39    20    22 2   
    40    20    25 1   
    41    21    22 1   
    42    21    23 1   
    43    22    24 1   
    44    23    58 1   
    45    23    59 1   
    46    23    60 1   
    47    24    39 1   
    48    24    61 1   
    49    24    62 1   
    50    25    26 2   
    51    25    63 1   
    52    26    27 1   
    53    26    29 1   
    54    27    28 1   
    55    27    64 1   
    56    28    30 1   
    57    28    33 2   
    58    29    30 2   
    59    29    31 1   
    60    30    32 1   
    61    31    43 1   
    62    31    65 1   
    63    31    66 1   
    64    32    67 1   
    65    32    68 1   
    66    32    69 1   
    67    34    70 1   
    68    34    71 1   
    69    34    72 1   
    70    35    36 1   
    71    35    73 1   
    72    35    74 1   
    73    36    37 1   
    74    36    38 1   
    75    39    40 1   
    76    39    75 1   
    77    39    76 1   
    78    40    41 1   
    79    40    42 1   
    80    43    77 1   
    81    43    78 1   
    82    43    79 1   
@<TRIPOS>SUBSTRUCTURE
     1 MBV         1 TEMP              0 ****  ****    0 ROOT
