@<TRIPOS>MOLECULE
MBX
   70    73     1     0     0
SMALL
bcc


@<TRIPOS>ATOM
      1 N1          -4.0330    -4.3750    -0.2430 n1         1 MBX      -0.364800
      2 C1          -3.6650    -3.2840    -0.1620 cg         1 MBX       0.249800
      3 C2          -3.2100    -1.9460    -0.0630 ca         1 MBX      -0.180300
      4 C7          -1.8420    -1.6610    -0.0320 ca         1 MBX       0.607600
      5 N6          -1.3910    -0.4330     0.0720 nb         1 MBX      -0.772000
      6 C5          -2.2340     0.5950     0.1430 ca         1 MBX       0.707200
      7 N17         -1.6610     1.8400     0.2310 nh         1 MBX      -0.757300
      8 C22         -0.2330     1.9460    -0.0330 c6         1 MBX       0.169300
      9 C21          0.1270     3.3880    -0.3630 c6         1 MBX       0.142600
     10 O20         -0.3000     4.2690     0.6590 os         1 MBX      -0.406600
     11 C19         -1.6830     4.1800     0.9510 c6         1 MBX       0.142600
     12 C18         -2.0500     2.7460     1.3070 c6         1 MBX       0.169300
     13 C4          -3.6370     0.4170     0.0560 ca         1 MBX      -0.280600
     14 C8          -4.5990     1.5680    -0.0730 c6         1 MBX       0.196700
     15 O8          -5.8180     1.1830    -0.6440 os         1 MBX      -0.399600
     16 C30         -6.4520     0.0900     0.0150 c6         1 MBX       0.160800
     17 C6          -5.5840    -1.1500    -0.2020 c6         1 MBX      -0.072100
     18 C3          -4.1190    -0.8740    -0.0400 ca         1 MBX       0.047700
     19 S8          -0.6910    -2.9810    -0.1230 ss         1 MBX      -0.303400
     20 C9           0.8960    -2.1050    -0.0140 c3         1 MBX       0.009700
     21 C10          2.0210    -3.1370    -0.0210 c3         1 MBX      -0.019100
     22 C11          3.3520    -2.4400     0.0460 ca         1 MBX      -0.111300
     23 C16          3.9340    -2.1100     1.2670 ca         1 MBX      -0.095500
     24 C15          5.1350    -1.4260     1.3230 ca         1 MBX      -0.168000
     25 C14          5.7970    -1.0440     0.1540 ca         1 MBX       0.076600
     26 C13          5.2250    -1.3700    -1.0770 ca         1 MBX      -0.168000
     27 C12          4.0190    -2.0560    -1.1110 ca         1 MBX      -0.095500
     28 C17         -2.5590     4.7560    -0.1540 c3         1 MBX      -0.105600
     29 C24          1.6240     3.5500    -0.5190 c3         1 MBX      -0.105600
     30 C25         -6.6590     0.3590     1.5050 c3         1 MBX      -0.101100
     31 C26         -7.7950    -0.0870    -0.6740 c3         1 MBX      -0.101100
     32 N27          7.0070    -0.3630     0.3100 ns         1 MBX      -0.469100
     33 C28          7.8100     0.1980    -0.6300 c          1 MBX       0.676300
     34 O30          7.5830     0.1760    -1.8280 o          1 MBX      -0.583100
     35 C20          9.0100     0.8560    -0.0510 ce         1 MBX      -0.258200
     36 C23          9.9030     1.4680    -0.8190 c2         1 MBX      -0.123000
     37 H1           0.3560     1.5990     0.8280 h1         1 MBX       0.055950
     38 H2           0.0320     1.3160    -0.8810 h1         1 MBX       0.055950
     39 H3          -0.3590     3.6500    -1.3130 h1         1 MBX       0.059700
     40 H4          -1.8260     4.7840     1.8510 h1         1 MBX       0.059700
     41 H5          -3.1140     2.6890     1.5140 h1         1 MBX       0.055950
     42 H6          -1.5320     2.4530     2.2300 h1         1 MBX       0.055950
     43 H7          -4.7720     2.0490     0.8980 h1         1 MBX       0.054200
     44 H8          -4.1680     2.3300    -0.7280 h1         1 MBX       0.054200
     45 H9          -5.8920    -1.9480     0.4780 hc         1 MBX       0.074200
     46 H10         -5.7450    -1.5360    -1.2150 hc         1 MBX       0.074200
     47 H11          0.9880    -1.4240    -0.8600 h1         1 MBX       0.077700
     48 H12          0.9150    -1.5150     0.9020 h1         1 MBX       0.077700
     49 H13          1.9070    -3.8150     0.8280 hc         1 MBX       0.059200
     50 H14          1.9640    -3.7450    -0.9270 hc         1 MBX       0.059200
     51 H15          3.4480    -2.3930     2.1930 ha         1 MBX       0.132000
     52 H16          5.5660    -1.1870     2.2890 ha         1 MBX       0.147000
     53 H17          5.7050    -1.1040    -2.0030 ha         1 MBX       0.147000
     54 H18          3.5940    -2.3000    -2.0780 ha         1 MBX       0.132000
     55 H19         -2.5830     4.1280    -1.0450 hc         1 MBX       0.046533
     56 H20         -3.5840     4.8600     0.2040 hc         1 MBX       0.046533
     57 H21         -2.2080     5.7470    -0.4440 hc         1 MBX       0.046533
     58 H22          1.9900     2.9100    -1.3220 hc         1 MBX       0.046533
     59 H23          1.8810     4.5790    -0.7710 hc         1 MBX       0.046533
     60 H24          2.1500     3.2770     0.3970 hc         1 MBX       0.046533
     61 H25         -7.1440     1.3240     1.6630 hc         1 MBX       0.045700
     62 H26         -7.3040    -0.4090     1.9300 hc         1 MBX       0.045700
     63 H27         -5.7300     0.3470     2.0790 hc         1 MBX       0.045700
     64 H28         -7.6680    -0.2260    -1.7490 hc         1 MBX       0.045700
     65 H29         -8.3070    -0.9670    -0.2820 hc         1 MBX       0.045700
     66 H30         -8.4390     0.7780    -0.5100 hc         1 MBX       0.045700
     67 H31          7.3090    -0.2600     1.2670 hn         1 MBX       0.316500
     68 H32          9.1430     0.8280     1.0250 ha         1 MBX       0.127000
     69 H33          9.7970     1.5130    -1.8950 ha         1 MBX       0.128000
     70 H34         10.7730     1.9460    -0.3910 ha         1 MBX       0.128000
@<TRIPOS>BOND
     1     1     2 3   
     2     2     3 1   
     3     3     4 ar  
     4     3    18 ar  
     5     4     5 ar  
     6     4    19 1   
     7     5     6 ar  
     8     6     7 1   
     9     6    13 ar  
    10     7     8 1   
    11     7    12 1   
    12     8     9 1   
    13     8    37 1   
    14     8    38 1   
    15     9    10 1   
    16     9    29 1   
    17     9    39 1   
    18    10    11 1   
    19    11    12 1   
    20    11    28 1   
    21    11    40 1   
    22    12    41 1   
    23    12    42 1   
    24    13    14 1   
    25    13    18 ar  
    26    14    15 1   
    27    14    43 1   
    28    14    44 1   
    29    15    16 1   
    30    16    17 1   
    31    16    30 1   
    32    16    31 1   
    33    17    18 1   
    34    17    45 1   
    35    17    46 1   
    36    19    20 1   
    37    20    21 1   
    38    20    47 1   
    39    20    48 1   
    40    21    22 1   
    41    21    49 1   
    42    21    50 1   
    43    22    23 ar  
    44    22    27 ar  
    45    23    24 ar  
    46    23    51 1   
    47    24    25 ar  
    48    24    52 1   
    49    25    26 ar  
    50    25    32 1   
    51    26    27 ar  
    52    26    53 1   
    53    27    54 1   
    54    28    55 1   
    55    28    56 1   
    56    28    57 1   
    57    29    58 1   
    58    29    59 1   
    59    29    60 1   
    60    30    61 1   
    61    30    62 1   
    62    30    63 1   
    63    31    64 1   
    64    31    65 1   
    65    31    66 1   
    66    32    33 1   
    67    32    67 1   
    68    33    34 2   
    69    33    35 1   
    70    35    36 2   
    71    35    68 1   
    72    36    69 1   
    73    36    70 1   
@<TRIPOS>SUBSTRUCTURE
     1 MBX         1 TEMP              0 ****  ****    0 ROOT
