@<TRIPOS>MOLECULE
MBX
   70    73     1     0     0
SMALL
No Charge or Current Charge


@<TRIPOS>ATOM
      1 N1          -4.0930    -4.5040    -0.2240 n1         1 MBX      -0.454000
      2 C1          -3.7200    -3.3990    -0.1690 cg         1 MBX       0.339000
      3 C2          -3.2850    -2.0340    -0.1040 ca         1 MBX      -0.115000
      4 C7          -1.9120    -1.7410     0.0090 ca         1 MBX       0.542300
      5 N6          -1.4370    -0.4860     0.0690 nb         1 MBX      -0.772000
      6 C5          -2.3080     0.5250     0.0080 ca         1 MBX       0.641900
      7 N17         -1.7210     1.7920     0.0960 nh         1 MBX      -0.757300
      8 C22         -0.4730     2.0890    -0.6750 c6         1 MBX       0.169300
      9 C21         -0.2090     3.6240    -0.7820 c6         1 MBX       0.165800
     10 O20         -0.2290     4.2370     0.5310 os         1 MBX      -0.453000
     11 C19         -1.4580     4.0260     1.2770 c6         1 MBX       0.165800
     12 C18         -1.7610     2.4990     1.4140 c6         1 MBX       0.169300
     13 C4          -3.6950     0.3480    -0.1200 ca         1 MBX      -0.215300
     14 C8          -4.6150     1.5700    -0.2170 c6         1 MBX       0.219900
     15 O8          -5.9260     1.1990    -0.7050 os         1 MBX      -0.446000
     16 C30         -6.5590     0.0750    -0.0570 c6         1 MBX       0.184000
     17 C6          -5.7190    -1.2010    -0.3100 c6         1 MBX      -0.072100
     18 C3          -4.2070    -0.9650    -0.1630 ca         1 MBX       0.047700
     19 S8          -0.6810    -3.0490     0.0860 ss         1 MBX      -0.351300
     20 C9           0.9370    -2.1490     0.1400 c3         1 MBX       0.057600
     21 C10          2.1120    -3.1410     0.1920 c3         1 MBX      -0.019100
     22 C11          3.4550    -2.4230     0.2310 ca         1 MBX      -0.111300
     23 C16          4.0570    -2.1070     1.4630 ca         1 MBX      -0.077500
     24 C15          5.2910    -1.4360     1.4960 ca         1 MBX      -0.150000
     25 C14          5.9440    -1.0680     0.3040 ca         1 MBX      -0.016000
     26 C13          5.3340    -1.3830    -0.9300 ca         1 MBX      -0.150000
     27 C12          4.1000    -2.0550    -0.9630 ca         1 MBX      -0.077500
     28 C17         -2.6140     4.8270     0.6120 c3         1 MBX      -0.105600
     29 C24          1.1710     3.9400    -1.4050 c3         1 MBX      -0.105600
     30 C25         -6.7360     0.3840     1.4620 c3         1 MBX      -0.101100
     31 C26         -7.9680    -0.0430    -0.6980 c3         1 MBX      -0.101100
     32 N27          7.1890    -0.3890     0.4190 ns         1 MBX      -0.143000
     33 C28          8.0890     0.0870    -0.5250 c          1 MBX       0.609300
     34 O30          7.9470    -0.0140    -1.7380 o          1 MBX      -0.583100
     35 C20          9.2880     0.7520     0.0740 ce         1 MBX      -0.308200
     36 C23         10.3100     1.2840    -0.6440 c2         1 MBX      -0.223000
     37 H1           0.3910     1.6120    -0.1890 h1         1 MBX       0.055950
     38 H2          -0.5490     1.6740    -1.6910 h1         1 MBX       0.055950
     39 H3          -0.9820     4.0830    -1.4150 h1         1 MBX       0.059700
     40 H4          -1.3120     4.4400     2.2850 h1         1 MBX       0.059700
     41 H5          -2.7420     2.3740     1.8930 h1         1 MBX       0.055950
     42 H6          -1.0170     2.0550     2.0910 h1         1 MBX       0.055950
     43 H7          -4.7110     2.0510     0.7660 h1         1 MBX       0.054200
     44 H8          -4.1860     2.3090    -0.9090 h1         1 MBX       0.054200
     45 H9          -6.0560    -1.9920     0.3740 hc         1 MBX       0.074200
     46 H10         -5.9130    -1.5730    -1.3250 hc         1 MBX       0.074200
     47 H11          1.0280    -1.5160    -0.7520 h1         1 MBX       0.077700
     48 H12          0.9610    -1.5020     1.0270 h1         1 MBX       0.077700
     49 H13          1.9990    -3.7850     1.0720 hc         1 MBX       0.059200
     50 H14          2.0620    -3.8010    -0.6830 hc         1 MBX       0.059200
     51 H15          3.5690    -2.3800     2.3960 ha         1 MBX       0.114000
     52 H16          5.7420    -1.2010     2.4580 ha         1 MBX       0.129000
     53 H17          5.7960    -1.1160    -1.8750 ha         1 MBX       0.129000
     54 H18          3.6430    -2.2880    -1.9230 ha         1 MBX       0.114000
     55 H19         -2.9250     4.3940    -0.3450 hc         1 MBX       0.046533
     56 H20         -3.4960     4.8390     1.2620 hc         1 MBX       0.046533
     57 H21         -2.3210     5.8690     0.4360 hc         1 MBX       0.046533
     58 H22          1.2490     3.5250    -2.4170 hc         1 MBX       0.046533
     59 H23          1.3310     5.0220    -1.4770 hc         1 MBX       0.046533
     60 H24          1.9860     3.5160    -0.8050 hc         1 MBX       0.046533
     61 H25         -7.1890     1.3700     1.6200 hc         1 MBX       0.045700
     62 H26         -7.3880    -0.3570     1.9400 hc         1 MBX       0.045700
     63 H27         -5.7830     0.3600     2.0030 hc         1 MBX       0.045700
     64 H28         -7.9010    -0.1910    -1.7830 hc         1 MBX       0.045700
     65 H29         -8.5250    -0.8910    -0.2820 hc         1 MBX       0.045700
     66 H30         -8.5620     0.8620    -0.5250 hc         1 MBX       0.045700
     67 H31          7.4720    -0.2220     1.3760 hn         1 MBX       0.150000
     68 H32          9.3120     0.7920     1.1630 ha         1 MBX       0.177000
     69 H33         10.3240     1.2620    -1.7360 ha         1 MBX       0.178000
     70 H34         11.1660     1.7580    -0.1600 ha         1 MBX       0.178000
@<TRIPOS>BOND
     1     1     2 3   
     2     2     3 1   
     3     3     4 ar  
     4     3    18 ar  
     5     4     5 ar  
     6     4    19 1   
     7     5     6 ar  
     8     6     7 1   
     9     6    13 ar  
    10     7     8 1   
    11     7    12 1   
    12     8     9 1   
    13     8    37 1   
    14     8    38 1   
    15     9    10 1   
    16     9    29 1   
    17     9    39 1   
    18    10    11 1   
    19    11    12 1   
    20    11    28 1   
    21    11    40 1   
    22    12    41 1   
    23    12    42 1   
    24    13    14 1   
    25    13    18 ar  
    26    14    15 1   
    27    14    43 1   
    28    14    44 1   
    29    15    16 1   
    30    16    17 1   
    31    16    30 1   
    32    16    31 1   
    33    17    18 1   
    34    17    45 1   
    35    17    46 1   
    36    19    20 1   
    37    20    21 1   
    38    20    47 1   
    39    20    48 1   
    40    21    22 1   
    41    21    49 1   
    42    21    50 1   
    43    22    23 ar  
    44    22    27 ar  
    45    23    24 ar  
    46    23    51 1   
    47    24    25 ar  
    48    24    52 1   
    49    25    26 ar  
    50    25    32 1   
    51    26    27 ar  
    52    26    53 1   
    53    27    54 1   
    54    28    55 1   
    55    28    56 1   
    56    28    57 1   
    57    29    58 1   
    58    29    59 1   
    59    29    60 1   
    60    30    61 1   
    61    30    62 1   
    62    30    63 1   
    63    31    64 1   
    64    31    65 1   
    65    31    66 1   
    66    32    33 1   
    67    32    67 1   
    68    33    34 2   
    69    33    35 1   
    70    35    36 2   
    71    35    68 1   
    72    36    69 1   
    73    36    70 1   
@<TRIPOS>SUBSTRUCTURE
     1 MBX         1 TEMP              0 ****  ****    0 ROOT
