@<TRIPOS>MOLECULE
MBY
   35    37     1     0     0
SMALL
No Charge or Current Charge


@<TRIPOS>ATOM
      1 O6          -4.4370     1.4270     0.4550 oh         1 MBY      -0.634300
      2 C6          -3.3060     1.1200    -0.2250 ca         1 MBY       0.399300
      3 N1          -3.0120     1.8520    -1.3140 nb         1 MBY      -0.285000
      4 C2          -1.8790     1.5130    -1.9750 ca         1 MBY       0.164900
      5 N3          -1.0200     0.5190    -1.6500 nb         1 MBY      -0.179000
      6 C4          -1.3350    -0.1900    -0.5500 ca         1 MBY       0.164800
      7 C5          -2.4720     0.0770     0.1830 ca         1 MBY      -0.319000
      8 C9          -0.5590    -1.3000    -0.0330 cc         1 MBY      -0.233000
      9 C8          -1.2000    -1.8430     1.0770 cd         1 MBY      -0.154400
     10 S7          -2.7010    -1.0020     1.5640 ss         1 MBY       0.156400
     11 C7           0.7230    -1.8290    -0.6380 c3         1 MBY       0.268000
     12 N4           1.9570    -1.2110    -0.0850 n3         1 MBY      -0.752600
     13 C11          2.2410     0.2220    -0.4120 c5         1 MBY       0.172500
     14 C12          2.4070     0.5720    -1.9300 c3         1 MBY       0.161600
     15 O5           3.5350    -0.0920    -2.5330 oh         1 MBY      -0.654000
     16 C3           3.5460     0.4140     0.4220 c5         1 MBY       0.170300
     17 O3           4.0610     1.7610     0.4510 oh         1 MBY      -0.633000
     18 C10          3.0690    -0.1190     1.8160 c5         1 MBY       0.149300
     19 O2           2.2990     0.8440     2.5670 oh         1 MBY      -0.637000
     20 C1           2.1820    -1.3500     1.3910 c5         1 MBY       0.150800
     21 H2          -1.6360     2.0980    -2.8600 h5         1 MBY       0.050100
     22 H3          -0.8770    -2.6950     1.6660 h4         1 MBY       0.218000
     23 H4           0.7550    -2.9140    -0.4650 h1         1 MBY       0.064700
     24 H5           0.6860    -1.6990    -1.7280 h1         1 MBY       0.064700
     25 H7           1.4430     0.8690    -0.0190 h1         1 MBY       0.067700
     26 H8           1.4880     0.3040    -2.4650 h1         1 MBY       0.027200
     27 H9           2.5240     1.6600    -2.0220 h1         1 MBY       0.027200
     28 H10          3.4840     0.0760    -3.4990 ho         1 MBY       0.435000
     29 H11          4.3270    -0.2580     0.0360 h1         1 MBY       0.059700
     30 H12          4.4610     1.9250    -0.4310 ho         1 MBY       0.441000
     31 H13          3.9300    -0.4530     2.4120 h1         1 MBY       0.050700
     32 H14          2.0910     0.4330     3.4330 ho         1 MBY       0.434000
     33 H15          1.2420    -1.3490     1.9570 h1         1 MBY       0.042200
     34 H16          2.6900    -2.2990     1.6130 h1         1 MBY       0.042200
     35 H17         -4.8440     2.1810    -0.0210 ho         1 MBY       0.497000
@<TRIPOS>BOND
     1     1     2 1   
     2     1    35 1   
     3     2     3 ar  
     4     2     7 ar  
     5     3     4 ar  
     6     4     5 ar  
     7     4    21 1   
     8     5     6 ar  
     9     6     7 ar  
    10     6     8 1   
    11     7    10 1   
    12     8     9 2   
    13     8    11 1   
    14     9    10 1   
    15     9    22 1   
    16    11    12 1   
    17    11    23 1   
    18    11    24 1   
    19    12    13 1   
    20    12    20 1   
    21    13    14 1   
    22    13    16 1   
    23    13    25 1   
    24    14    15 1   
    25    14    26 1   
    26    14    27 1   
    27    15    28 1   
    28    16    17 1   
    29    16    18 1   
    30    16    29 1   
    31    17    30 1   
    32    18    19 1   
    33    18    20 1   
    34    18    31 1   
    35    19    32 1   
    36    20    33 1   
    37    20    34 1   
@<TRIPOS>SUBSTRUCTURE
     1 MBY         1 TEMP              0 ****  ****    0 ROOT
