@<TRIPOS>MOLECULE
MBY
   35    37     1     0     0
SMALL
bcc


@<TRIPOS>ATOM
      1 O6          -4.2590     1.5090     0.6630 oh         1 MBY      -0.595300
      2 C6          -3.2000     1.2160    -0.0680 ca         1 MBY       0.727600
      3 N1          -2.9070     1.9240    -1.1360 nb         1 MBY      -0.811000
      4 C2          -1.8250     1.5690    -1.8400 ca         1 MBY       0.690900
      5 N3          -1.0010     0.5820    -1.5860 nb         1 MBY      -0.705000
      6 C4          -1.2860    -0.1440    -0.4920 ca         1 MBY       0.493100
      7 C5          -2.3950     0.1400     0.3060 ca         1 MBY      -0.322700
      8 C9          -0.5500    -1.2800    -0.0120 cc         1 MBY      -0.233000
      9 C8          -1.1400    -1.7940     1.0970 cd         1 MBY      -0.104400
     10 S7          -2.5550    -0.9560     1.6200 ss         1 MBY       0.029500
     11 C7           0.7170    -1.8060    -0.6350 c3         1 MBY       0.268000
     12 N4           1.9330    -1.1900    -0.1650 n3         1 MBY      -0.752600
     13 C11          2.2110     0.1840    -0.5400 c5         1 MBY       0.172500
     14 C12          2.5430     0.3540    -2.0080 c3         1 MBY       0.138400
     15 O5           3.6500    -0.4440    -2.3560 oh         1 MBY      -0.591800
     16 C3           3.3520     0.5350     0.4200 c5         1 MBY       0.147100
     17 O3           3.6160     1.9060     0.5470 oh         1 MBY      -0.570800
     18 C10          2.8630    -0.0780     1.7240 c5         1 MBY       0.126100
     19 O2           1.8760     0.7780     2.2560 oh         1 MBY      -0.574800
     20 C1           2.2920    -1.4050     1.2310 c5         1 MBY       0.150800
     21 H2          -1.6180     2.1710    -2.7170 h5         1 MBY       0.050100
     22 H3          -0.8180    -2.6640     1.6520 h4         1 MBY       0.168000
     23 H4           0.7820    -2.8810    -0.4480 h1         1 MBY       0.064700
     24 H5           0.6580    -1.6890    -1.7190 h1         1 MBY       0.064700
     25 H7           1.3740     0.8700    -0.3360 h1         1 MBY       0.067700
     26 H8           1.6570     0.1040    -2.6060 h1         1 MBY       0.027200
     27 H9           2.7360     1.4220    -2.1830 h1         1 MBY       0.027200
     28 H10          3.8740    -0.2560    -3.2720 ho         1 MBY       0.396000
     29 H11          4.2510    -0.0170     0.1160 h1         1 MBY       0.059700
     30 H12          4.1890     2.1720    -0.1770 ho         1 MBY       0.402000
     31 H13          3.6770    -0.2340     2.4430 h1         1 MBY       0.050700
     32 H14          1.4150     0.3080     2.9570 ho         1 MBY       0.395000
     33 H15          1.4390    -1.7030     1.8530 h1         1 MBY       0.042200
     34 H16          3.0370    -2.2040     1.3230 h1         1 MBY       0.042200
     35 H17         -4.7250     2.2650     0.2780 ho         1 MBY       0.458000
@<TRIPOS>BOND
     1     1     2 1   
     2     1    35 1   
     3     2     3 ar  
     4     2     7 ar  
     5     3     4 ar  
     6     4     5 ar  
     7     4    21 1   
     8     5     6 ar  
     9     6     7 ar  
    10     6     8 1   
    11     7    10 1   
    12     8     9 2   
    13     8    11 1   
    14     9    10 1   
    15     9    22 1   
    16    11    12 1   
    17    11    23 1   
    18    11    24 1   
    19    12    13 1   
    20    12    20 1   
    21    13    14 1   
    22    13    16 1   
    23    13    25 1   
    24    14    15 1   
    25    14    26 1   
    26    14    27 1   
    27    15    28 1   
    28    16    17 1   
    29    16    18 1   
    30    16    29 1   
    31    17    30 1   
    32    18    19 1   
    33    18    20 1   
    34    18    31 1   
    35    19    32 1   
    36    20    33 1   
    37    20    34 1   
@<TRIPOS>SUBSTRUCTURE
     1 MBY         1 TEMP              0 ****  ****    0 ROOT
