@<TRIPOS>MOLECULE
MC3
  118   117     1     0     0
SMALL
bcc


@<TRIPOS>ATOM
      1 C1          -0.4210    -4.5370     2.1330 c3         1 MC3       0.190400
      2 C2          -0.8390    -3.5920     3.2580 c3         1 MC3       0.143100
      3 C3           0.3220    -2.9570     3.9890 c3         1 MC3       0.145400
      4 C4           1.0310    -3.2250    -2.4980 c3         1 MC3       0.195400
      5 C5           0.8270    -1.7870    -2.9200 c3         1 MC3       0.113800
      6 C6           2.8090    -0.9820    -1.6810 c3         1 MC3       0.101100
      7 C7           1.3040     0.5730    -2.7690 c3         1 MC3       0.101100
      8 C8           0.5950    -0.5640    -0.7620 c3         1 MC3       0.101100
      9 C11          2.3130    -1.8220     3.4100 c          1 MC3       0.652100
     10 C12          3.0110    -1.1440     2.2670 c3         1 MC3      -0.149400
     11 C13          4.4050    -0.6390     2.5980 c3         1 MC3      -0.066400
     12 C14          5.0760    -0.0100     1.3830 c3         1 MC3      -0.072400
     13 C15          6.4660     0.5360     1.6830 c3         1 MC3      -0.077400
     14 C16          7.1380     1.1600     0.4670 c3         1 MC3      -0.072400
     15 C17          8.5290     1.7080     0.7630 c3         1 MC3      -0.075400
     16 C18          9.2020     2.3320    -0.4530 c3         1 MC3      -0.073400
     17 C19         10.5930     2.8790    -0.1560 c3         1 MC3      -0.075400
     18 C20         11.2670     3.5030    -1.3720 c3         1 MC3      -0.074400
     19 C21         12.6590     4.0480    -1.0750 c3         1 MC3      -0.075400
     20 C22         13.3320     4.6740    -2.2900 c3         1 MC3      -0.075400
     21 C23         14.7270     5.2120    -1.9970 c3         1 MC3      -0.075400
     22 C24         15.3870     5.8410    -3.2160 c3         1 MC3      -0.088100
     23 C32         -3.5560    -1.5100     1.8820 c3         1 MC3      -0.134400
     24 C33         -5.0240    -1.6720     1.5280 c3         1 MC3      -0.069400
     25 C34         -5.6240    -0.3630     1.0300 c3         1 MC3      -0.075400
     26 C35         -7.0980    -0.4780     0.6610 c3         1 MC3      -0.075400
     27 C36         -7.6910     0.8420     0.1850 c3         1 MC3      -0.074400
     28 C37         -9.1630     0.7450    -0.1960 c3         1 MC3      -0.074400
     29 C38         -9.7470     2.0750    -0.6580 c3         1 MC3      -0.074400
     30 C39        -11.2160     1.9900    -1.0530 c3         1 MC3      -0.074400
     31 C40        -11.7900     3.3260    -1.5090 c3         1 MC3      -0.074400
     32 C41        -13.2570     3.2480    -1.9150 c3         1 MC3      -0.074400
     33 C42        -13.8230     4.5860    -2.3740 c3         1 MC3      -0.075400
     34 C43        -15.2880     4.5160    -2.7860 c3         1 MC3      -0.075400
     35 C44        -15.8350     5.8590    -3.2500 c3         1 MC3      -0.088100
     36 N            1.3850    -0.7130    -2.0190 n4         1 MC3      -0.598800
     37 O2          -1.6540    -2.5210     2.7820 os         1 MC3      -0.412900
     38 O3           1.0890    -2.1980     3.0620 os         1 MC3      -0.402900
     39 O11          2.7850    -2.0260     4.5020 o          1 MC3      -0.548000
     40 O31         -3.4300    -3.8440     2.4810 o          1 MC3      -0.536000
     41 O1P          2.3090    -3.8700     0.1380 o          1 MC3      -0.813000
     42 O2P          0.7090    -5.8640    -0.2950 o          1 MC3      -0.813000
     43 O3P         -0.1400    -3.7990     0.9680 os         1 MC3      -0.572200
     44 O4P          0.2580    -3.5550    -1.3720 os         1 MC3      -0.561200
     45 P            0.9250    -4.3930    -0.1180 p5         1 MC3       1.390800
     46 H11          0.4380    -5.1130     2.4940 h1         1 MC3       0.047200
     47 H12         -1.2220    -5.2550     1.9390 h1         1 MC3       0.047200
     48 H2          -1.3830    -4.1830     4.0020 h1         1 MC3       0.062700
     49 H31          0.9220    -3.7530     4.4360 h1         1 MC3       0.056200
     50 H32         -0.0420    -2.3180     4.7980 h1         1 MC3       0.056200
     51 H41          2.0930    -3.4400    -2.3570 h1         1 MC3       0.057700
     52 H42          0.7080    -3.8200    -3.3580 h1         1 MC3       0.057700
     53 H51          1.3130    -1.6540    -3.8870 hx         1 MC3       0.079200
     54 H52         -0.2330    -1.5670    -3.0460 hx         1 MC3       0.079200
     55 H61          3.3680    -1.1520    -2.5980 hx         1 MC3       0.095478
     56 H62          3.2130    -0.1110    -1.1720 hx         1 MC3       0.095478
     57 H63          2.8730    -1.8530    -1.0330 hx         1 MC3       0.095478
     58 H71          0.2690     0.7640    -3.0420 hx         1 MC3       0.095478
     59 H72          1.6690     1.3760    -2.1350 hx         1 MC3       0.095478
     60 H73          1.9170     0.5070    -3.6650 hx         1 MC3       0.095478
     61 H81          0.7200    -1.4300    -0.1240 hx         1 MC3       0.095478
     62 H82          0.9500     0.3240    -0.2440 hx         1 MC3       0.095478
     63 H83         -0.4540    -0.4350    -1.0150 hx         1 MC3       0.095478
     64 H121         2.3810    -0.3200     1.9180 hc         1 MC3       0.075700
     65 H122         3.0360    -1.8670     1.4450 hc         1 MC3       0.075700
     66 H131         5.0240    -1.4610     2.9670 hc         1 MC3       0.057700
     67 H132         4.3510     0.0970     3.4060 hc         1 MC3       0.057700
     68 H141         4.4470     0.7980     0.9930 hc         1 MC3       0.024700
     69 H142         5.1490    -0.7540     0.5820 hc         1 MC3       0.024700
     70 H151         7.0960    -0.2710     2.0740 hc         1 MC3       0.045700
     71 H152         6.3960     1.2820     2.4830 hc         1 MC3       0.045700
     72 H161         6.5070     1.9670     0.0770 hc         1 MC3       0.030200
     73 H162         7.2050     0.4150    -0.3330 hc         1 MC3       0.030200
     74 H171         9.1600     0.9010     1.1540 hc         1 MC3       0.041200
     75 H172         8.4610     2.4530     1.5630 hc         1 MC3       0.041200
     76 H181         8.5710     3.1380    -0.8440 hc         1 MC3       0.034200
     77 H182         9.2700     1.5860    -1.2520 hc         1 MC3       0.034200
     78 H191        11.2240     2.0730     0.2350 hc         1 MC3       0.039200
     79 H192        10.5240     3.6250     0.6430 hc         1 MC3       0.039200
     80 H201        10.6370     4.3110    -1.7620 hc         1 MC3       0.035700
     81 H202        11.3340     2.7580    -2.1720 hc         1 MC3       0.035700
     82 H211        13.2880     3.2400    -0.6860 hc         1 MC3       0.038200
     83 H212        12.5920     4.7930    -0.2740 hc         1 MC3       0.038200
     84 H221        12.7050     5.4860    -2.6760 hc         1 MC3       0.036200
     85 H222        13.3940     3.9320    -3.0940 hc         1 MC3       0.036200
     86 H231        15.3540     4.3990    -1.6150 hc         1 MC3       0.037200
     87 H232        14.6680     5.9500    -1.1910 hc         1 MC3       0.037200
     88 H241        16.3870     6.2110    -2.9870 hc         1 MC3       0.031367
     89 H242        15.4800     5.1210    -4.0320 hc         1 MC3       0.031367
     90 H243        14.8010     6.6840    -3.5870 hc         1 MC3       0.031367
     91 H321        -3.4260    -0.7210     2.6290 hc         1 MC3       0.062200
     92 H322        -2.9860    -1.1800     1.0070 hc         1 MC3       0.062200
     93 H331        -5.1400    -2.4420     0.7610 hc         1 MC3       0.057200
     94 H332        -5.5820    -2.0170     2.4020 hc         1 MC3       0.057200
     95 H341        -5.5030     0.4060     1.8010 hc         1 MC3       0.032200
     96 H342        -5.0590    -0.0120     0.1590 hc         1 MC3       0.032200
     97 H351        -7.2200    -1.2350    -0.1210 hc         1 MC3       0.042200
     98 H352        -7.6640    -0.8390     1.5270 hc         1 MC3       0.042200
     99 H361        -7.5700     1.5950     0.9720 hc         1 MC3       0.034200
    100 H362        -7.1180     1.2070    -0.6740 hc         1 MC3       0.034200
    101 H371        -9.2850     0.0000    -0.9900 hc         1 MC3       0.039200
    102 H372        -9.7390     0.3750     0.6600 hc         1 MC3       0.039200
    103 H381        -9.6280     2.8170     0.1390 hc         1 MC3       0.035700
    104 H382        -9.1640     2.4490    -1.5080 hc         1 MC3       0.035700
    105 H391       -11.3350     1.2520    -1.8540 hc         1 MC3       0.038200
    106 H392       -11.8000     1.6150    -0.2050 hc         1 MC3       0.038200
    107 H401       -11.6750     4.0610    -0.7060 hc         1 MC3       0.036200
    108 H402       -11.2000     3.7030    -2.3520 hc         1 MC3       0.036200
    109 H411       -13.3720     2.5120    -2.7190 hc         1 MC3       0.037200
    110 H412       -13.8490     2.8730    -1.0730 hc         1 MC3       0.037200
    111 H421       -13.7090     5.3220    -1.5700 hc         1 MC3       0.036200
    112 H422       -13.2270     4.9620    -3.2140 hc         1 MC3       0.036200
    113 H431       -15.4040     3.7780    -3.5860 hc         1 MC3       0.037200
    114 H432       -15.8830     4.1460    -1.9450 hc         1 MC3       0.037200
    115 H441       -16.8830     5.7880    -3.5440 hc         1 MC3       0.031367
    116 H442       -15.7640     6.6080    -2.4590 hc         1 MC3       0.031367
    117 H443       -15.2750     6.2330    -4.1090 hc         1 MC3       0.031367
    118 C31         -2.9050    -2.7610     2.4050 c          1 MC3       0.652100
@<TRIPOS>BOND
     1     1     2 1   
     2     1    43 1   
     3     1    46 1   
     4     1    47 1   
     5     2     3 1   
     6     2    37 1   
     7     2    48 1   
     8     3    38 1   
     9     3    49 1   
    10     3    50 1   
    11     4     5 1   
    12     4    44 1   
    13     4    51 1   
    14     4    52 1   
    15     5    36 1   
    16     5    53 1   
    17     5    54 1   
    18     6    36 1   
    19     6    55 1   
    20     6    56 1   
    21     6    57 1   
    22     7    36 1   
    23     7    58 1   
    24     7    59 1   
    25     7    60 1   
    26     8    36 1   
    27     8    61 1   
    28     8    62 1   
    29     8    63 1   
    30     9    10 1   
    31     9    38 1   
    32     9    39 2   
    33    10    11 1   
    34    10    64 1   
    35    10    65 1   
    36    11    12 1   
    37    11    66 1   
    38    11    67 1   
    39    12    13 1   
    40    12    68 1   
    41    12    69 1   
    42    13    14 1   
    43    13    70 1   
    44    13    71 1   
    45    14    15 1   
    46    14    72 1   
    47    14    73 1   
    48    15    16 1   
    49    15    74 1   
    50    15    75 1   
    51    16    17 1   
    52    16    76 1   
    53    16    77 1   
    54    17    18 1   
    55    17    78 1   
    56    17    79 1   
    57    18    19 1   
    58    18    80 1   
    59    18    81 1   
    60    19    20 1   
    61    19    82 1   
    62    19    83 1   
    63    20    21 1   
    64    20    84 1   
    65    20    85 1   
    66    21    22 1   
    67    21    86 1   
    68    21    87 1   
    69    22    88 1   
    70    22    89 1   
    71    22    90 1   
    72    23    24 1   
    73    23    91 1   
    74    23    92 1   
    75    23   118 1   
    76    24    25 1   
    77    24    93 1   
    78    24    94 1   
    79    25    26 1   
    80    25    95 1   
    81    25    96 1   
    82    26    27 1   
    83    26    97 1   
    84    26    98 1   
    85    27    28 1   
    86    27    99 1   
    87    27   100 1   
    88    28    29 1   
    89    28   101 1   
    90    28   102 1   
    91    29    30 1   
    92    29   103 1   
    93    29   104 1   
    94    30    31 1   
    95    30   105 1   
    96    30   106 1   
    97    31    32 1   
    98    31   107 1   
    99    31   108 1   
   100    32    33 1   
   101    32   109 1   
   102    32   110 1   
   103    33    34 1   
   104    33   111 1   
   105    33   112 1   
   106    34    35 1   
   107    34   113 1   
   108    34   114 1   
   109    35   115 1   
   110    35   116 1   
   111    35   117 1   
   112    37   118 1   
   113    40   118 2   
   114    41    45 1   
   115    42    45 1   
   116    43    45 1   
   117    44    45 1   
@<TRIPOS>SUBSTRUCTURE
     1 MC3         1 TEMP              0 ****  ****    0 ROOT
