@<TRIPOS>MOLECULE
MC3
  118   117     1     0     0
SMALL
No Charge or Current Charge


@<TRIPOS>ATOM
      1 C1           0.8580    -3.4140     2.0290 c3         1 MC3       0.213600
      2 C2          -0.3260    -2.6340     2.6930 c3         1 MC3       0.166300
      3 C3           0.0980    -1.6200     3.7920 c3         1 MC3       0.168600
      4 C4           0.7390    -1.8470    -2.2380 c3         1 MC3       0.218600
      5 C5          -0.0030    -0.4880    -2.1640 c3         1 MC3       0.085600
      6 C6           2.0090     0.9860    -1.7150 c3         1 MC3       0.072900
      7 C7          -0.3000     1.9250    -1.5860 c3         1 MC3       0.072900
      8 C8           0.4940     0.3650     0.1780 c3         1 MC3       0.072900
      9 C11          1.5690     0.2640     4.1020 c          1 MC3       0.603100
     10 C12          2.4330     1.2870     3.3620 c3         1 MC3      -0.149400
     11 C13          3.8170     0.6910     3.0130 c3         1 MC3      -0.066400
     12 C14          4.7140     1.6630     2.2160 c3         1 MC3      -0.072400
     13 C15          6.0960     1.0600     1.8790 c3         1 MC3      -0.077400
     14 C16          7.0110     2.0280     1.0970 c3         1 MC3      -0.072400
     15 C17          8.3940     1.4180     0.7790 c3         1 MC3      -0.075400
     16 C18          9.3230     2.3810     0.0060 c3         1 MC3      -0.073400
     17 C19         10.7070     1.7640    -0.2950 c3         1 MC3      -0.075400
     18 C20         11.6470     2.7210    -1.0620 c3         1 MC3      -0.074400
     19 C21         13.0300     2.0990    -1.3530 c3         1 MC3      -0.075400
     20 C22         13.9750     3.0520    -2.1180 c3         1 MC3      -0.075400
     21 C23         15.3580     2.4280    -2.4060 c3         1 MC3      -0.075400
     22 C24         16.3030     3.3770    -3.1670 c3         1 MC3      -0.088100
     23 C32         -2.7350    -1.8200    -0.0950 c3         1 MC3      -0.134400
     24 C33         -4.1900    -1.6500     0.3980 c3         1 MC3      -0.069400
     25 C34         -5.0510    -0.7760    -0.5410 c3         1 MC3      -0.075400
     26 C35         -6.5090    -0.6350    -0.0540 c3         1 MC3      -0.075400
     27 C36         -7.3860     0.2240    -0.9910 c3         1 MC3      -0.074400
     28 C37         -8.8470     0.3370    -0.5030 c3         1 MC3      -0.074400
     29 C38         -9.7380     1.1850    -1.4380 c3         1 MC3      -0.074400
     30 C39        -11.2010     1.2740    -0.9510 c3         1 MC3      -0.074400
     31 C40        -12.1020     2.1130    -1.8830 c3         1 MC3      -0.074400
     32 C41        -13.5660     2.1830    -1.3960 c3         1 MC3      -0.074400
     33 C42        -14.4760     3.0150    -2.3260 c3         1 MC3      -0.075400
     34 C43        -15.9410     3.0740    -1.8370 c3         1 MC3      -0.075400
     35 C44        -16.8530     3.9010    -2.7630 c3         1 MC3      -0.088100
     36 N            0.5570     0.6810    -1.3190 n4         1 MC3      -0.486000
     37 O2          -1.1460    -1.9530     1.7080 os         1 MC3      -0.436100
     38 O3           0.9080    -0.5640     3.2350 os         1 MC3      -0.426100
     39 O11          1.5160     0.1780     5.3210 o          1 MC3      -0.499000
     40 O31         -2.0020    -3.9210     0.8770 o          1 MC3      -0.487000
     41 O1P          3.2470    -2.0390    -0.6720 o          1 MC3      -0.813000
     42 O2P          2.4200    -4.3530    -0.4040 o          1 MC3      -0.813000
     43 O3P          1.7200    -2.5360     1.2840 os         1 MC3      -0.595400
     44 O4P          0.7320    -2.4860    -0.9510 os         1 MC3      -0.584400
     45 P            2.1140    -2.9020    -0.2330 p5         1 MC3       1.390800
     46 H11          1.4340    -3.9090     2.8220 h1         1 MC3       0.047200
     47 H12          0.4530    -4.2110     1.3930 h1         1 MC3       0.047200
     48 H2          -0.9400    -3.3840     3.2110 h1         1 MC3       0.062700
     49 H31          0.6580    -2.1700     4.5600 h1         1 MC3       0.056200
     50 H32         -0.8000    -1.2040     4.2670 h1         1 MC3       0.056200
     51 H41          1.7540    -1.6850    -2.6230 h1         1 MC3       0.057700
     52 H42          0.2190    -2.4830    -2.9660 h1         1 MC3       0.057700
     53 H51         -0.0770    -0.1140    -3.1870 hx         1 MC3       0.079200
     54 H52         -1.0190    -0.6780    -1.8180 hx         1 MC3       0.079200
     55 H61          2.0510     1.2190    -2.7810 hx         1 MC3       0.095478
     56 H62          2.3670     1.8410    -1.1380 hx         1 MC3       0.095478
     57 H63          2.6320     0.1170    -1.5030 hx         1 MC3       0.095478
     58 H71         -1.3330     1.7190    -1.2970 hx         1 MC3       0.095478
     59 H72          0.0860     2.7610    -0.9990 hx         1 MC3       0.095478
     60 H73         -0.2580     2.1720    -2.6490 hx         1 MC3       0.095478
     61 H81          1.1680    -0.4590     0.4070 hx         1 MC3       0.095478
     62 H82          0.7960     1.2500     0.7390 hx         1 MC3       0.095478
     63 H83         -0.5250     0.0910     0.4530 hx         1 MC3       0.095478
     64 H121         2.5640     2.1780     3.9870 hc         1 MC3       0.075700
     65 H122         1.9500     1.5430     2.4150 hc         1 MC3       0.075700
     66 H131         3.6770    -0.2280     2.4270 hc         1 MC3       0.057700
     67 H132         4.3290     0.4020     3.9400 hc         1 MC3       0.057700
     68 H141         4.8530     2.5830     2.7970 hc         1 MC3       0.024700
     69 H142         4.2060     1.9430     1.2850 hc         1 MC3       0.024700
     70 H151         5.9540     0.1440     1.2910 hc         1 MC3       0.045700
     71 H152         6.5960     0.7670     2.8110 hc         1 MC3       0.045700
     72 H161         7.1470     2.9470     1.6810 hc         1 MC3       0.030200
     73 H162         6.5170     2.3130     0.1590 hc         1 MC3       0.030200
     74 H171         8.2570     0.5020     0.1910 hc         1 MC3       0.041200
     75 H172         8.8820     1.1270     1.7180 hc         1 MC3       0.041200
     76 H181         9.4570     3.3000     0.5900 hc         1 MC3       0.034200
     77 H182         8.8420     2.6670    -0.9380 hc         1 MC3       0.034200
     78 H191        10.5730     0.8460    -0.8810 hc         1 MC3       0.039200
     79 H192        11.1840     1.4740     0.6500 hc         1 MC3       0.039200
     80 H201        11.7810     3.6400    -0.4780 hc         1 MC3       0.035700
     81 H202        11.1740     3.0090    -2.0100 hc         1 MC3       0.035700
     82 H211        12.8960     1.1800    -1.9380 hc         1 MC3       0.038200
     83 H212        13.5010     1.8090    -0.4050 hc         1 MC3       0.038200
     84 H221        14.1090     3.9720    -1.5340 hc         1 MC3       0.036200
     85 H222        13.5050     3.3410    -3.0670 hc         1 MC3       0.036200
     86 H231        15.2270     1.5090    -2.9910 hc         1 MC3       0.037200
     87 H232        15.8290     2.1390    -1.4580 hc         1 MC3       0.037200
     88 H241        17.2700     2.8910    -3.3460 hc         1 MC3       0.031367
     89 H242        15.8750     3.6560    -4.1370 hc         1 MC3       0.031367
     90 H243        16.4820     4.2920    -2.5900 hc         1 MC3       0.031367
     91 H321        -2.2860    -0.8230    -0.1460 hc         1 MC3       0.062200
     92 H322        -2.7460    -2.2880    -1.0860 hc         1 MC3       0.062200
     93 H331        -4.6540    -2.6390     0.4950 hc         1 MC3       0.057200
     94 H332        -4.1810    -1.2020     1.4010 hc         1 MC3       0.057200
     95 H341        -4.5990     0.2200    -0.6250 hc         1 MC3       0.032200
     96 H342        -5.0480    -1.2160    -1.5460 hc         1 MC3       0.032200
     97 H351        -6.9550    -1.6330     0.0380 hc         1 MC3       0.042200
     98 H352        -6.5120    -0.1900     0.9500 hc         1 MC3       0.042200
     99 H361        -6.9520     1.2290    -1.0720 hc         1 MC3       0.034200
    100 H362        -7.3750    -0.2130    -1.9970 hc         1 MC3       0.034200
    101 H371        -9.2750    -0.6700    -0.4160 hc         1 MC3       0.039200
    102 H372        -8.8580     0.7770     0.5020 hc         1 MC3       0.039200
    103 H381        -9.3200     2.1970    -1.5160 hc         1 MC3       0.035700
    104 H382        -9.7200     0.7510    -2.4450 hc         1 MC3       0.035700
    105 H391       -11.6140     0.2600    -0.8680 hc         1 MC3       0.038200
    106 H392       -11.2190     1.7100     0.0560 hc         1 MC3       0.038200
    107 H401       -11.6970     3.1300    -1.9580 hc         1 MC3       0.036200
    108 H402       -12.0780     1.6820    -2.8920 hc         1 MC3       0.036200
    109 H411       -13.9680     1.1640    -1.3170 hc         1 MC3       0.037200
    110 H412       -13.5900     2.6160    -0.3870 hc         1 MC3       0.037200
    111 H421       -14.0790     4.0360    -2.4010 hc         1 MC3       0.036200
    112 H422       -14.4500     2.5850    -3.3350 hc         1 MC3       0.036200
    113 H431       -16.3400     2.0540    -1.7620 hc         1 MC3       0.037200
    114 H432       -15.9710     3.5050    -0.8280 hc         1 MC3       0.037200
    115 H441       -17.8800     3.9110    -2.3760 hc         1 MC3       0.031367
    116 H442       -16.5010     4.9380    -2.8300 hc         1 MC3       0.031367
    117 H443       -16.8720     3.4740    -3.7740 hc         1 MC3       0.031367
    118 C31         -1.9270    -2.7000     0.8620 c          1 MC3       0.603100
@<TRIPOS>BOND
     1     1     2 1   
     2     1    43 1   
     3     1    46 1   
     4     1    47 1   
     5     2     3 1   
     6     2    37 1   
     7     2    48 1   
     8     3    38 1   
     9     3    49 1   
    10     3    50 1   
    11     4     5 1   
    12     4    44 1   
    13     4    51 1   
    14     4    52 1   
    15     5    36 1   
    16     5    53 1   
    17     5    54 1   
    18     6    36 1   
    19     6    55 1   
    20     6    56 1   
    21     6    57 1   
    22     7    36 1   
    23     7    58 1   
    24     7    59 1   
    25     7    60 1   
    26     8    36 1   
    27     8    61 1   
    28     8    62 1   
    29     8    63 1   
    30     9    10 1   
    31     9    38 1   
    32     9    39 2   
    33    10    11 1   
    34    10    64 1   
    35    10    65 1   
    36    11    12 1   
    37    11    66 1   
    38    11    67 1   
    39    12    13 1   
    40    12    68 1   
    41    12    69 1   
    42    13    14 1   
    43    13    70 1   
    44    13    71 1   
    45    14    15 1   
    46    14    72 1   
    47    14    73 1   
    48    15    16 1   
    49    15    74 1   
    50    15    75 1   
    51    16    17 1   
    52    16    76 1   
    53    16    77 1   
    54    17    18 1   
    55    17    78 1   
    56    17    79 1   
    57    18    19 1   
    58    18    80 1   
    59    18    81 1   
    60    19    20 1   
    61    19    82 1   
    62    19    83 1   
    63    20    21 1   
    64    20    84 1   
    65    20    85 1   
    66    21    22 1   
    67    21    86 1   
    68    21    87 1   
    69    22    88 1   
    70    22    89 1   
    71    22    90 1   
    72    23    24 1   
    73    23    91 1   
    74    23    92 1   
    75    23   118 1   
    76    24    25 1   
    77    24    93 1   
    78    24    94 1   
    79    25    26 1   
    80    25    95 1   
    81    25    96 1   
    82    26    27 1   
    83    26    97 1   
    84    26    98 1   
    85    27    28 1   
    86    27    99 1   
    87    27   100 1   
    88    28    29 1   
    89    28   101 1   
    90    28   102 1   
    91    29    30 1   
    92    29   103 1   
    93    29   104 1   
    94    30    31 1   
    95    30   105 1   
    96    30   106 1   
    97    31    32 1   
    98    31   107 1   
    99    31   108 1   
   100    32    33 1   
   101    32   109 1   
   102    32   110 1   
   103    33    34 1   
   104    33   111 1   
   105    33   112 1   
   106    34    35 1   
   107    34   113 1   
   108    34   114 1   
   109    35   115 1   
   110    35   116 1   
   111    35   117 1   
   112    37   118 1   
   113    40   118 2   
   114    41    45 1   
   115    42    45 1   
   116    43    45 1   
   117    44    45 1   
@<TRIPOS>SUBSTRUCTURE
     1 MC3         1 TEMP              0 ****  ****    0 ROOT
