@<TRIPOS>MOLECULE
MC5
   43    46     1     0     0
SMALL
abcg2


@<TRIPOS>ATOM
      1 F            6.6180     2.1330     0.8710 f          1 MC5      -0.185000
      2 N           -7.0720     0.5860    -0.4170 ns         1 MC5      -0.482500
      3 S           -4.5830     0.9460    -1.0010 ss         1 MC5      -0.260600
      4 C1          -0.5470    -0.1260     0.8250 ca         1 MC5      -0.070000
      5 O1           3.5130    -0.4450    -0.0180 os         1 MC5      -0.349100
      6 C2          -0.0210    -1.2340     0.1150 ca         1 MC5       0.006000
      7 O2          -7.1660    -1.5160     0.4570 o          1 MC5      -0.487000
      8 C3           0.3410     0.8860     1.2410 ca         1 MC5      -0.056000
      9 O3          -6.5800     2.6420    -1.2970 o          1 MC5      -0.463000
     10 C4          -1.9350    -0.0690     1.0970 ca         1 MC5      -0.061000
     11 C5          -2.7820    -1.0640     0.6900 ca         1 MC5      -0.110300
     12 C6           1.3600    -1.2990    -0.1510 ca         1 MC5      -0.151000
     13 C7           2.2030    -0.2980     0.2720 ca         1 MC5       0.151100
     14 C8          -0.9150    -2.2520    -0.3040 ca         1 MC5      -0.104000
     15 C9           1.6830     0.8120     0.9780 ca         1 MC5      -0.178000
     16 C10          7.3620    -1.2840    -1.2370 ca         1 MC5      -0.128000
     17 C11         -2.2490    -2.1660    -0.0260 ca         1 MC5      -0.094000
     18 C13         -5.0470    -0.6670    -0.3050 c5         1 MC5      -0.037700
     19 C14         -6.5390    -0.6130    -0.0380 c          1 MC5       0.574000
     20 C15          8.4080    -0.4270    -0.9280 ca         1 MC5      -0.081000
     21 C16         -6.2410     1.5480    -0.9380 c          1 MC5       0.593600
     22 C17          8.1600     0.7370    -0.2120 ca         1 MC5      -0.149000
     23 C19          5.7930     0.1740    -0.1130 ca         1 MC5      -0.128300
     24 C20          6.8650     1.0070     0.1750 ca         1 MC5       0.168000
     25 C21          6.0670    -0.9850    -0.8320 ca         1 MC5      -0.059000
     26 HN          -8.0590     0.7830    -0.2950 hn         1 MC5       0.352500
     27 H3          -0.0470     1.7420     1.7790 ha         1 MC5       0.116000
     28 H4          -2.3230     0.7850     1.6420 ha         1 MC5       0.116000
     29 H6           1.7620    -2.1490    -0.6900 ha         1 MC5       0.129000
     30 H8          -0.5260    -3.1070    -0.8440 ha         1 MC5       0.118000
     31 H9           2.3260     1.6120     1.3180 ha         1 MC5       0.121000
     32 H10          7.5510    -2.1910    -1.7950 ha         1 MC5       0.120000
     33 H11         -2.9130    -2.9580    -0.3520 ha         1 MC5       0.112000
     34 H12         -4.6130    -1.9550     1.3410 hc         1 MC5       0.069200
     35 H12A        -4.4650    -0.2420     1.7260 hc         1 MC5       0.069200
     36 H13         -4.8740    -1.4350    -1.0640 h1         1 MC5       0.115700
     37 H15          9.4170    -0.6580    -1.2410 ha         1 MC5       0.119000
     38 H17          8.9570     1.4230     0.0430 ha         1 MC5       0.133000
     39 H18          4.1330     1.5250    -0.0910 h1         1 MC5       0.050700
     40 H18A         4.4200     0.7010     1.4430 h1         1 MC5       0.050700
     41 H21          5.2650    -1.6650    -1.0820 ha         1 MC5       0.133000
     42 C18          4.4190     0.5650     0.3550 c3         1 MC5       0.219900
     43 C12         -4.2560    -0.9940     0.9630 c3         1 MC5      -0.004100
@<TRIPOS>BOND
     1     1    24 1   
     2     2    19 1   
     3     2    21 1   
     4     2    26 1   
     5     3    18 1   
     6     3    21 1   
     7     4     6 ar  
     8     4     8 ar  
     9     4    10 ar  
    10     5    13 1   
    11     5    42 1   
    12     6    12 ar  
    13     6    14 ar  
    14     7    19 2   
    15     8    15 ar  
    16     8    27 1   
    17     9    21 2   
    18    10    11 ar  
    19    10    28 1   
    20    11    17 ar  
    21    11    43 1   
    22    12    13 ar  
    23    12    29 1   
    24    13    15 ar  
    25    14    17 ar  
    26    14    30 1   
    27    15    31 1   
    28    16    20 ar  
    29    16    25 ar  
    30    16    32 1   
    31    17    33 1   
    32    18    19 1   
    33    18    36 1   
    34    18    43 1   
    35    20    22 ar  
    36    20    37 1   
    37    22    24 ar  
    38    22    38 1   
    39    23    24 ar  
    40    23    25 ar  
    41    23    42 1   
    42    25    41 1   
    43    34    43 1   
    44    35    43 1   
    45    39    42 1   
    46    40    42 1   
@<TRIPOS>SUBSTRUCTURE
     1 MC5         1 TEMP              0 ****  ****    0 ROOT
