@<TRIPOS>MOLECULE
MC5
   43    46     1     0     0
SMALL
No Charge or Current Charge


@<TRIPOS>ATOM
      1 F            6.3660    -0.0560     2.0440 f          1 MC5      -0.185000
      2 N           -7.1560     0.1970    -0.5330 ns         1 MC5      -0.482500
      3 S           -4.7250     0.5350    -1.2980 ss         1 MC5      -0.260600
      4 C1          -0.5540     0.1250     0.7200 ca         1 MC5      -0.070000
      5 O1           3.5640    -0.2750    -0.0020 os         1 MC5      -0.349100
      6 C2           0.0110    -1.1320     0.4200 ca         1 MC5       0.006000
      7 O2          -7.2800    -1.5840     0.8710 o          1 MC5      -0.487000
      8 C3           0.2690     1.2650     0.7790 ca         1 MC5      -0.056000
      9 O3          -6.9330     1.9770    -1.9430 o          1 MC5      -0.463000
     10 C4          -1.9370     0.2340     0.9580 ca         1 MC5      -0.061000
     11 C5          -2.7620    -0.9070     0.8970 ca         1 MC5      -0.110300
     12 C6           1.3940    -1.2400     0.1820 ca         1 MC5      -0.151000
     13 C7           2.2170    -0.1050     0.2400 ca         1 MC5       0.151100
     14 C8          -0.8110    -2.2720     0.3590 ca         1 MC5      -0.104000
     15 C9           1.6510     1.1540     0.5400 ca         1 MC5      -0.178000
     16 C10          7.5930    -0.3110    -1.9210 ca         1 MC5      -0.128000
     17 C11         -2.1920    -2.1590     0.5970 ca         1 MC5      -0.094000
     18 C13         -5.1090    -0.8890    -0.1450 c5         1 MC5      -0.037700
     19 C14         -6.6250    -0.8470     0.1530 c          1 MC5       0.574000
     20 C15          8.4540    -0.7180    -0.8880 ca         1 MC5      -0.081000
     21 C16         -6.4560     1.0410    -1.3260 c          1 MC5       0.593600
     22 C17          8.0310    -0.6290     0.4490 ca         1 MC5      -0.149000
     23 C19          5.8830     0.2820    -0.2800 ca         1 MC5      -0.128300
     24 C20          6.7520    -0.1320     0.7500 ca         1 MC5       0.168000
     25 C21          6.3120     0.1870    -1.6200 ca         1 MC5      -0.059000
     26 HN          -8.1480     0.3580    -0.4440 hn         1 MC5       0.352500
     27 H3          -0.1600     2.2380     1.0090 ha         1 MC5       0.116000
     28 H4          -2.3720     1.2050     1.1850 ha         1 MC5       0.116000
     29 H6           1.8350    -2.2060    -0.0500 ha         1 MC5       0.129000
     30 H8          -0.3830    -3.2440     0.1290 ha         1 MC5       0.118000
     31 H9           2.2600     2.0510     0.5930 ha         1 MC5       0.121000
     32 H10          7.9170    -0.3810    -2.9570 ha         1 MC5       0.120000
     33 H11         -2.8180    -3.0470     0.5470 ha         1 MC5       0.112000
     34 H12         -4.5670    -1.5830     1.8430 hc         1 MC5       0.069200
     35 H12A        -4.4880     0.1510     1.6630 hc         1 MC5       0.069200
     36 H13         -4.9020    -1.8370    -0.6570 h1         1 MC5       0.115700
     37 H15          9.4450    -1.1030    -1.1230 ha         1 MC5       0.119000
     38 H17          8.6920    -0.9440     1.2530 ha         1 MC5       0.133000
     39 H18          4.2230     1.5820    -0.7080 h1         1 MC5       0.050700
     40 H18A         4.4930     1.2990     1.0230 h1         1 MC5       0.050700
     41 H21          5.6530     0.4960    -2.4280 ha         1 MC5       0.133000
     42 C18          4.4940     0.8210     0.0350 c3         1 MC5       0.219900
     43 C12         -4.2620    -0.7910     1.1480 c3         1 MC5      -0.004100
@<TRIPOS>BOND
     1     1    24 1   
     2     2    19 1   
     3     2    21 1   
     4     2    26 1   
     5     3    18 1   
     6     3    21 1   
     7     4     6 ar  
     8     4     8 ar  
     9     4    10 ar  
    10     5    13 1   
    11     5    42 1   
    12     6    12 ar  
    13     6    14 ar  
    14     7    19 2   
    15     8    15 ar  
    16     8    27 1   
    17     9    21 2   
    18    10    11 ar  
    19    10    28 1   
    20    11    17 ar  
    21    11    43 1   
    22    12    13 ar  
    23    12    29 1   
    24    13    15 ar  
    25    14    17 ar  
    26    14    30 1   
    27    15    31 1   
    28    16    20 ar  
    29    16    25 ar  
    30    16    32 1   
    31    17    33 1   
    32    18    19 1   
    33    18    36 1   
    34    18    43 1   
    35    20    22 ar  
    36    20    37 1   
    37    22    24 ar  
    38    22    38 1   
    39    23    24 ar  
    40    23    25 ar  
    41    23    42 1   
    42    25    41 1   
    43    34    43 1   
    44    35    43 1   
    45    39    42 1   
    46    40    42 1   
@<TRIPOS>SUBSTRUCTURE
     1 MC5         1 TEMP              0 ****  ****    0 ROOT
