@<TRIPOS>MOLECULE
MC8
   75    78     1     0     0
SMALL
No Charge or Current Charge


@<TRIPOS>ATOM
      1 N1           1.4440     1.6150    -2.6060 n          1 MC8      -0.386400
      2 C2           2.4920     2.3760    -3.0500 c          1 MC8       0.542000
      3 N3           3.4470     2.1970    -2.0710 n          1 MC8      -0.312300
      4 C4           2.9430     1.3120    -1.1000 cc         1 MC8       0.288900
      5 N5           1.6930     0.9320    -1.3900 nd         1 MC8      -0.443300
      6 N6          -5.4500     1.0490     2.1860 nc         1 MC8      -0.765000
      7 C7          -5.7700     1.9650     3.0520 cd         1 MC8       0.726300
      8 S8          -4.6800     2.2660     4.3850 ss         1 MC8      -0.096400
      9 C9          -3.6700     1.0190     3.6730 cd         1 MC8      -0.243000
     10 C10         -3.9410    -2.7760    -1.5000 c3         1 MC8      -0.014300
     11 C11         -4.0130    -4.3130    -1.3570 c          1 MC8       0.560900
     12 C13         -3.0500    -2.3910    -2.7080 c3         1 MC8       0.139800
     13 O14         -3.6700    -4.9370    -0.3570 o          1 MC8      -0.486100
     14 N15         -3.5220    -2.1250    -0.2240 ns         1 MC8      -0.473900
     15 C16         -4.2930    -1.2250     0.5040 c          1 MC8       0.518800
     16 O17         -5.4500    -1.0030     0.1530 o          1 MC8      -0.642100
     17 C18         -3.6020    -0.5840     1.7090 ce         1 MC8       0.255300
     18 N19         -2.4120    -0.9930     2.0380 n2         1 MC8      -0.250700
     19 O20         -2.3870    -2.3240     2.5150 os         1 MC8      -0.298000
     20 C21         -1.0300    -2.7960     2.7510 c3         1 MC8       0.048000
     21 C22         -0.1530    -2.8000     1.4390 c          1 MC8       0.738000
     22 C23         -0.4040    -1.9310     3.8870 c3         1 MC8      -0.082100
     23 C24         -1.2040    -4.2560     3.2350 c3         1 MC8      -0.082100
     24 O25         -0.7150    -2.7620     0.3490 o          1 MC8      -0.709500
     25 O26          1.0670    -2.7350     1.5610 o          1 MC8      -0.709500
     26 C27         -4.2340     0.4820     2.5290 cc         1 MC8       0.359700
     27 C29         -1.7290    -0.4320    -3.1810 c2         1 MC8       0.677100
     28 O30         -0.6980    -1.1230    -3.6850 os         1 MC8      -0.167600
     29 N31         -1.3540     0.8090    -2.8500 nu         1 MC8      -0.900800
     30 S32         -0.0150     1.4320    -3.6010 s6         1 MC8       1.284400
     31 O33          0.4220    -0.1710    -3.4330 os         1 MC8      -0.148700
     32 O34         -0.5130     2.1130    -2.2480 oh         1 MC8      -0.650700
     33 O35          2.5670     3.0330    -4.0780 o          1 MC8      -0.623000
     34 C36          4.8150     2.7540    -2.2060 c3         1 MC8       0.090000
     35 C37          5.0340     4.1130    -1.4890 c3         1 MC8       0.165300
     36 C38          6.4980     4.6150    -1.6680 c3         1 MC8       0.127600
     37 O39          4.7030     4.0050    -0.0890 oh         1 MC8      -0.666000
     38 O40          6.6700     5.9490    -1.1600 oh         1 MC8      -0.644000
     39 C41          3.6800     0.7950     0.0950 ca         1 MC8       0.344700
     40 N42          4.8750     1.3340     0.4690 nb         1 MC8      -0.726000
     41 C43          5.5160     0.8270     1.5480 ca         1 MC8       0.264900
     42 C44          5.0190    -0.2430     2.3200 ca         1 MC8       0.014100
     43 C45          3.7820    -0.8040     1.9390 ca         1 MC8       0.218100
     44 C46          3.1160    -0.2710     0.8300 ca         1 MC8      -0.201000
     45 O47          3.2380    -1.8570     2.6280 oh         1 MC8      -0.574100
     46 O48          5.7250    -0.7210     3.4060 oh         1 MC8      -0.510100
     47 H10         -4.9610    -2.4570    -1.7450 h1         1 MC8       0.093700
     48 H11         -4.4120    -4.8480    -2.2470 h4         1 MC8      -0.033800
     49 H13         -2.1000    -2.9400    -2.6330 h1         1 MC8       0.048700
     50 H13A        -3.5490    -2.7280    -3.6280 h1         1 MC8       0.048700
     51 HN15        -2.5700    -2.2880     0.1190 hn         1 MC8       0.407500
     52 H23         -1.0960    -1.8350     4.7320 hc         1 MC8       0.039367
     53 H23A         0.5200    -2.3890     4.2600 hc         1 MC8       0.039367
     54 H23B        -0.1530    -0.9250     3.5290 hc         1 MC8       0.039367
     55 H24         -1.6820    -4.8650     2.4580 hc         1 MC8       0.039367
     56 H24A        -0.2310    -4.7060     3.4670 hc         1 MC8       0.039367
     57 H24B        -1.8250    -4.2990     4.1380 hc         1 MC8       0.039367
     58 HN28        -7.5440     2.1030     2.1960 hn         1 MC8       0.488000
     59 HN2A        -7.3820     2.9980     3.6560 hn         1 MC8       0.488000
     60 HN31        -2.0930     1.4930    -2.9570 hn         1 MC8       0.338000
     61 HO34        -0.5650     1.2410    -1.8210 ho         1 MC8       0.589000
     62 H36          5.5500     2.0190    -1.8560 h1         1 MC8       0.060200
     63 H36A         5.0250     2.8970    -3.2740 h1         1 MC8       0.060200
     64 H37          4.3720     4.8470    -1.9700 h1         1 MC8       0.079700
     65 H38          7.1810     3.9230    -1.1570 h1         1 MC8       0.013700
     66 H38A         6.7500     4.5940    -2.7370 h1         1 MC8       0.013700
     67 HO39         4.8120     3.0430     0.1490 ho         1 MC8       0.483000
     68 HO40         7.6230     6.1710    -1.2510 ho         1 MC8       0.427000
     69 H43          6.4660     1.2970     1.7970 h4         1 MC8       0.000100
     70 H46          2.1660    -0.6890     0.5170 ha         1 MC8       0.182000
     71 HO47         2.4050    -2.1690     2.1550 ho         1 MC8       0.567000
     72 HO48         6.5550    -0.2060     3.5070 ho         1 MC8       0.443000
     73 N28         -6.9350     2.5810     2.8480 nv         1 MC8      -1.058900
     74 N12         -2.8180    -0.9340    -2.7530 n2         1 MC8      -0.701900
     75 H9          -2.7280     0.7470     4.1340 h4         1 MC8       0.173000
@<TRIPOS>BOND
     1     1     2 1   
     2     1     5 1   
     3     1    30 2   
     4     2     3 1   
     5     2    33 2   
     6     3     4 1   
     7     3    34 1   
     8     4     5 2   
     9     4    39 1   
    10     6     7 2   
    11     6    26 1   
    12     7     8 1   
    13     7    73 1   
    14     8     9 1   
    15     9    26 2   
    16     9    75 1   
    17    10    11 1   
    18    10    12 1   
    19    10    14 1   
    20    10    47 1   
    21    11    13 2   
    22    11    48 1   
    23    12    49 1   
    24    12    50 1   
    25    12    74 1   
    26    14    15 1   
    27    14    51 1   
    28    15    16 2   
    29    15    17 1   
    30    17    18 2   
    31    17    26 1   
    32    18    19 1   
    33    19    20 1   
    34    20    21 1   
    35    20    22 1   
    36    20    23 1   
    37    21    24 1   
    38    21    25 1   
    39    22    52 1   
    40    22    53 1   
    41    22    54 1   
    42    23    55 1   
    43    23    56 1   
    44    23    57 1   
    45    27    28 1   
    46    27    29 1   
    47    27    74 2   
    48    28    31 1   
    49    29    30 2   
    50    29    60 1   
    51    30    31 1   
    52    30    32 1   
    53    32    61 1   
    54    34    35 1   
    55    34    62 1   
    56    34    63 1   
    57    35    36 1   
    58    35    37 1   
    59    35    64 1   
    60    36    38 1   
    61    36    65 1   
    62    36    66 1   
    63    37    67 1   
    64    38    68 1   
    65    39    40 ar  
    66    39    44 ar  
    67    40    41 ar  
    68    41    42 ar  
    69    41    69 1   
    70    42    43 ar  
    71    42    46 1   
    72    43    44 ar  
    73    43    45 1   
    74    44    70 1   
    75    45    71 1   
    76    46    72 1   
    77    58    73 1   
    78    59    73 1   
@<TRIPOS>SUBSTRUCTURE
     1 MC8         1 TEMP              0 ****  ****    0 ROOT
