@<TRIPOS>MOLECULE
MC8
   75    78     1     0     0
SMALL
abcg2


@<TRIPOS>ATOM
      1 N1           0.6480     2.2890    -1.3120 n          1 MC8      -0.386400
      2 C2           1.6230     2.7680    -2.1370 c          1 MC8       0.542000
      3 N3           2.8000     2.4190    -1.5020 n          1 MC8      -0.312300
      4 C4           2.4560     1.7200    -0.3750 cc         1 MC8       0.288900
      5 N5           1.1760     1.6280    -0.2560 nd         1 MC8      -0.443300
      6 N6          -3.6340     1.4290     0.9100 nc         1 MC8      -0.765000
      7 C7          -4.1680     2.5420     1.3500 cd         1 MC8       0.726300
      8 S8          -4.5430     2.5220     3.0450 ss         1 MC8      -0.096400
      9 C9          -3.9310     0.9090     3.1390 cd         1 MC8      -0.243000
     10 C10         -3.7640    -3.0380    -1.3540 c3         1 MC8      -0.014300
     11 C11         -3.5370    -4.5270    -1.3450 c          1 MC8       0.560900
     12 C13         -3.3120    -2.4600    -2.7140 c3         1 MC8       0.139800
     13 O14         -2.9660    -5.1360    -0.4790 o          1 MC8      -0.486100
     14 N15         -3.1430    -2.3780    -0.2440 ns         1 MC8      -0.473900
     15 C16         -3.8380    -1.6080     0.5950 c          1 MC8       0.518800
     16 O17         -5.0450    -1.4140     0.5490 o          1 MC8      -0.642100
     17 C18         -3.0440    -0.8640     1.6470 ce         1 MC8       0.255300
     18 N19         -2.1300    -1.3160     2.4070 n2         1 MC8      -0.250700
     19 O20         -1.9460    -2.6520     2.2910 os         1 MC8      -0.298000
     20 C21         -0.5980    -3.0680     2.5350 c3         1 MC8       0.048000
     21 C22          0.2230    -2.8830     1.2400 c          1 MC8       0.738000
     22 C23          0.0270    -2.3480     3.7240 c3         1 MC8      -0.082100
     23 C24         -0.7200    -4.5640     2.8090 c3         1 MC8      -0.082100
     24 O25         -0.3770    -2.6530     0.1830 o          1 MC8      -0.709500
     25 O26          1.4680    -3.0500     1.3410 o          1 MC8      -0.709500
     26 C27         -3.5120     0.5010     1.9230 cc         1 MC8       0.359700
     27 C29         -2.6210    -0.2420    -2.4740 c2         1 MC8       0.677100
     28 O30         -1.3670    -0.6660    -2.1210 os         1 MC8      -0.167600
     29 N31         -2.6350     1.1000    -2.4410 nu         1 MC8      -0.900800
     30 S32         -1.1310     1.9090    -1.9170 s6         1 MC8       1.284400
     31 O33         -0.4490     0.3950    -2.1550 os         1 MC8      -0.148700
     32 O34         -1.5480     2.0680    -0.4120 oh         1 MC8      -0.650700
     33 O35          1.5060     3.3710    -3.1940 o          1 MC8      -0.623000
     34 C36          4.1150     2.7300    -2.0040 c3         1 MC8       0.090000
     35 C37          4.6580     4.0600    -1.4670 c3         1 MC8       0.165300
     36 C38          6.1250     4.1650    -1.8540 c3         1 MC8       0.127600
     37 O39          4.4520     4.2130    -0.0900 oh         1 MC8      -0.666000
     38 O40          6.5970     5.4490    -1.5290 oh         1 MC8      -0.644000
     39 C41          3.3590     1.0360     0.5580 ca         1 MC8       0.344700
     40 N42          4.5190     1.5940     0.8760 nb         1 MC8      -0.726000
     41 C43          5.3010     0.9520     1.7420 ca         1 MC8       0.264900
     42 C44          4.9690    -0.2570     2.3260 ca         1 MC8       0.014100
     43 C45          3.7390    -0.8580     1.9890 ca         1 MC8       0.218100
     44 C46          2.9350    -0.1790     1.0830 ca         1 MC8      -0.201000
     45 O47          3.4330    -2.0160     2.5420 oh         1 MC8      -0.574100
     46 O48          5.7550    -0.9110     3.1980 oh         1 MC8      -0.510100
     47 H10         -4.8480    -2.8940    -1.2900 h1         1 MC8       0.093700
     48 H11         -3.9560    -5.0410    -2.2290 h4         1 MC8      -0.033800
     49 H13         -2.2710    -2.7440    -2.9050 h1         1 MC8       0.048700
     50 H13A        -3.9110    -2.9380    -3.4910 h1         1 MC8       0.048700
     51 HN15        -2.1350    -2.5180    -0.0760 hn         1 MC8       0.407500
     52 H23         -0.6410    -2.3840     4.5850 hc         1 MC8       0.039367
     53 H23A         0.9520    -2.8470     4.0050 hc         1 MC8       0.039367
     54 H23B         0.2570    -1.3040     3.5170 hc         1 MC8       0.039367
     55 H24         -1.2280    -5.0730     1.9880 hc         1 MC8       0.039367
     56 H24A         0.2690    -5.0050     2.9240 hc         1 MC8       0.039367
     57 H24B        -1.2800    -4.7450     3.7280 hc         1 MC8       0.039367
     58 HN28        -4.3580     3.5320    -0.4030 hn         1 MC8       0.488000
     59 HN2A        -4.8940     4.4070     0.9560 hn         1 MC8       0.488000
     60 HN31        -3.4340     1.6260    -2.7630 hn         1 MC8       0.338000
     61 HO34        -2.4580     1.6850    -0.0960 ho         1 MC8       0.589000
     62 H36          4.7840     1.9050    -1.7510 h1         1 MC8       0.060200
     63 H36A         4.0590     2.7700    -3.0920 h1         1 MC8       0.060200
     64 H37          4.1100     4.8730    -1.9580 h1         1 MC8       0.079700
     65 H38          6.6820     3.3790    -1.3250 h1         1 MC8       0.013700
     66 H38A         6.2250     3.9560    -2.9280 h1         1 MC8       0.013700
     67 HO39         4.6630     3.3640     0.3500 ho         1 MC8       0.483000
     68 HO40         7.5360     5.4820    -1.7310 ho         1 MC8       0.427000
     69 H43          6.2460     1.4270     1.9880 h4         1 MC8       0.000100
     70 H46          1.9870    -0.5920     0.7680 ha         1 MC8       0.182000
     71 HO47         2.5910    -2.4120     2.1410 ho         1 MC8       0.567000
     72 HO48         6.5760    -0.4270     3.3400 ho         1 MC8       0.443000
     73 N28         -4.3630     3.6300     0.5990 nv         1 MC8      -1.058900
     74 N12         -3.5540    -1.0400    -2.7530 n2         1 MC8      -0.701900
     75 H9          -3.9640     0.3470     4.0580 h4         1 MC8       0.173000
@<TRIPOS>BOND
     1     1     2 1   
     2     1     5 1   
     3     1    30 2   
     4     2     3 1   
     5     2    33 2   
     6     3     4 1   
     7     3    34 1   
     8     4     5 2   
     9     4    39 1   
    10     6     7 2   
    11     6    26 1   
    12     7     8 1   
    13     7    73 1   
    14     8     9 1   
    15     9    26 2   
    16     9    75 1   
    17    10    11 1   
    18    10    12 1   
    19    10    14 1   
    20    10    47 1   
    21    11    13 2   
    22    11    48 1   
    23    12    49 1   
    24    12    50 1   
    25    12    74 1   
    26    14    15 1   
    27    14    51 1   
    28    15    16 2   
    29    15    17 1   
    30    17    18 2   
    31    17    26 1   
    32    18    19 1   
    33    19    20 1   
    34    20    21 1   
    35    20    22 1   
    36    20    23 1   
    37    21    24 1   
    38    21    25 1   
    39    22    52 1   
    40    22    53 1   
    41    22    54 1   
    42    23    55 1   
    43    23    56 1   
    44    23    57 1   
    45    27    28 1   
    46    27    29 1   
    47    27    74 2   
    48    28    31 1   
    49    29    30 2   
    50    29    60 1   
    51    30    31 1   
    52    30    32 1   
    53    32    61 1   
    54    34    35 1   
    55    34    62 1   
    56    34    63 1   
    57    35    36 1   
    58    35    37 1   
    59    35    64 1   
    60    36    38 1   
    61    36    65 1   
    62    36    66 1   
    63    37    67 1   
    64    38    68 1   
    65    39    40 ar  
    66    39    44 ar  
    67    40    41 ar  
    68    41    42 ar  
    69    41    69 1   
    70    42    43 ar  
    71    42    46 1   
    72    43    44 ar  
    73    43    45 1   
    74    44    70 1   
    75    45    71 1   
    76    46    72 1   
    77    58    73 1   
    78    59    73 1   
@<TRIPOS>SUBSTRUCTURE
     1 MC8         1 TEMP              0 ****  ****    0 ROOT
