@<TRIPOS>MOLECULE
MC9
   70    73     1     0     0
SMALL
No Charge or Current Charge


@<TRIPOS>ATOM
      1 O2          16.9730    18.4390    33.9130 oh         1 MC9      -0.658000
      2 O1          14.0070    17.8260    37.0290 oh         1 MC9      -0.657000
      3 C1          14.6050    18.3570    35.8400 c6         1 MC9       0.210500
      4 C2          15.1390    17.2010    34.9590 c6         1 MC9      -0.064400
      5 C3          15.7610    17.7250    33.6400 c6         1 MC9       0.176300
      6 C4          14.7580    18.6320    32.8780 c6         1 MC9      -0.075200
      7 C5          14.1780    19.7350    33.7750 ce         1 MC9      -0.068200
      8 C6          14.1520    21.0380    33.3680 cf         1 MC9      -0.163000
      9 C7          13.6300    22.1630    34.1490 cf         1 MC9      -0.187000
     10 C8          13.3980    23.4340    33.7160 c2         1 MC9      -0.080400
     11 C9          13.6680    23.9180    32.2800 c6         1 MC9      -0.041200
     12 C10         13.6100    19.2200    35.0340 ce         1 MC9      -0.117200
     13 C11         12.4880    24.7310    31.6740 c6         1 MC9      -0.070400
     14 C12         11.9350    25.8040    32.6530 c6         1 MC9      -0.063400
     15 C13         11.5980    25.1840    34.0410 c5         1 MC9      -0.038000
     16 C14         12.8980    24.5580    34.6420 c5         1 MC9      -0.035500
     17 C15         12.4260    24.1600    36.0740 c5         1 MC9      -0.070400
     18 C16         11.5230    25.3740    36.4920 c5         1 MC9      -0.074400
     19 C17         11.3670    26.2400    35.1860 c5         1 MC9      -0.049700
     20 C18         10.4160    24.1650    33.8570 c3         1 MC9      -0.078100
     21 C19         12.3260    19.4580    35.3980 c2         1 MC9      -0.303000
     22 C20         10.1150    27.1760    35.1070 c3         1 MC9      -0.017500
     23 C22          8.7700    26.4700    35.1750 c2         1 MC9      -0.188200
     24 C24          6.4910    25.8100    34.2830 c3         1 MC9       0.239500
     25 C21         10.1520    28.2860    36.1800 c3         1 MC9      -0.087100
     26 C25          6.5060    24.5710    33.3810 cx         1 MC9      -0.126700
     27 C26          6.3240    24.6600    31.8810 cx         1 MC9      -0.120900
     28 C27          5.2580    24.0090    32.7340 cx         1 MC9      -0.120900
     29 O3           5.4830    26.7470    33.9140 oh         1 MC9      -0.658000
     30 C23          7.8220    26.5150    34.2240 c2         1 MC9      -0.273200
     31 HO2         17.3080    18.7650    33.0500 ho         1 MC9       0.441000
     32 HO1         13.6970    18.6020    37.5430 ho         1 MC9       0.444000
     33 H1          15.4570    18.9980    36.1170 h1         1 MC9       0.055700
     34 H21         15.8820    16.6150    35.5160 hc         1 MC9       0.062200
     35 H22A        14.3150    16.5150    34.7220 hc         1 MC9       0.062200
     36 H3          15.9910    16.8580    33.0030 h1         1 MC9       0.033700
     37 H41         15.2400    19.0590    31.9870 hc         1 MC9       0.052200
     38 H42         13.9310    18.0140    32.5020 hc         1 MC9       0.052200
     39 H6          14.5830    21.2570    32.3930 ha         1 MC9       0.167000
     40 H7          13.4330    21.9270    35.1930 ha         1 MC9       0.177000
     41 H91         14.5660    24.5500    32.2910 hc         1 MC9       0.045200
     42 H92         13.8940    23.0920    31.5970 hc         1 MC9       0.045200
     43 H111        12.8160    25.2160    30.7440 hc         1 MC9       0.040700
     44 H112        11.6850    24.0430    31.3800 hc         1 MC9       0.040700
     45 H121        12.6840    26.5990    32.7720 hc         1 MC9       0.039700
     46 H122        11.0460    26.2840    32.2200 hc         1 MC9       0.039700
     47 H14         13.7000    25.3050    34.7190 hc         1 MC9       0.052700
     48 H151        11.8420    23.2330    36.0830 hc         1 MC9       0.045200
     49 H152        13.2690    24.0140    36.7590 hc         1 MC9       0.045200
     50 H161        10.5630    25.0190    36.8790 hc         1 MC9       0.040700
     51 H162        11.9830    25.9590    37.2970 hc         1 MC9       0.040700
     52 H17         12.2040    26.9500    35.1590 hc         1 MC9       0.042700
     53 H181         9.9570    23.8660    34.8050 hc         1 MC9       0.035700
     54 H182         9.6190    24.5940    33.2400 hc         1 MC9       0.035700
     55 H183        10.7370    23.2430    33.3600 hc         1 MC9       0.035700
     56 H191        11.8820    19.0620    36.3100 ha         1 MC9       0.168500
     57 H192        11.6660    20.0580    34.7700 ha         1 MC9       0.168500
     58 H20         10.1720    27.6960    34.1420 hc         1 MC9       0.053700
     59 H22          8.5980    25.9040    36.0920 ha         1 MC9       0.166000
     60 H24          6.3120    25.4720    35.3140 h1         1 MC9       0.032700
     61 H211         9.3090    28.9760    36.0480 hc         1 MC9       0.034700
     62 H212        10.0890    27.8600    37.1890 hc         1 MC9       0.034700
     63 H213        11.0780    28.8680    36.1100 hc         1 MC9       0.034700
     64 H25          7.2300    23.8400    33.7310 hc         1 MC9       0.077700
     65 H261         6.1010    25.6320    31.4460 hc         1 MC9       0.072950
     66 H262         6.9420    24.0170    31.2590 hc         1 MC9       0.072950
     67 H271         5.1590    22.9270    32.6820 hc         1 MC9       0.072950
     68 H272         4.3190    24.5420    32.8650 hc         1 MC9       0.072950
     69 HO3          5.6050    27.5190    34.5050 ho         1 MC9       0.444000
     70 H23          7.9870    27.0740    33.3030 ha         1 MC9       0.181000
@<TRIPOS>BOND
     1     1     5 1   
     2     1    31 1   
     3     2     3 1   
     4     2    32 1   
     5     3     4 1   
     6     3    12 1   
     7     3    33 1   
     8     4     5 1   
     9     4    34 1   
    10     4    35 1   
    11     5     6 1   
    12     5    36 1   
    13     6     7 1   
    14     6    37 1   
    15     6    38 1   
    16     7     8 2   
    17     7    12 1   
    18     8     9 1   
    19     8    39 1   
    20     9    10 2   
    21     9    40 1   
    22    10    11 1   
    23    10    16 1   
    24    11    13 1   
    25    11    41 1   
    26    11    42 1   
    27    12    21 2   
    28    13    14 1   
    29    13    43 1   
    30    13    44 1   
    31    14    15 1   
    32    14    45 1   
    33    14    46 1   
    34    15    16 1   
    35    15    19 1   
    36    15    20 1   
    37    16    17 1   
    38    16    47 1   
    39    17    18 1   
    40    17    48 1   
    41    17    49 1   
    42    18    19 1   
    43    18    50 1   
    44    18    51 1   
    45    19    22 1   
    46    19    52 1   
    47    20    53 1   
    48    20    54 1   
    49    20    55 1   
    50    21    56 1   
    51    21    57 1   
    52    22    23 1   
    53    22    25 1   
    54    22    58 1   
    55    23    30 2   
    56    23    59 1   
    57    24    26 1   
    58    24    29 1   
    59    24    30 1   
    60    24    60 1   
    61    25    61 1   
    62    25    62 1   
    63    25    63 1   
    64    26    27 1   
    65    26    28 1   
    66    26    64 1   
    67    27    28 1   
    68    27    65 1   
    69    27    66 1   
    70    28    67 1   
    71    28    68 1   
    72    29    69 1   
    73    30    70 1   
@<TRIPOS>SUBSTRUCTURE
     1 MC9         1 TEMP              0 ****  ****    0 ROOT
