@<TRIPOS>MOLECULE
MC9
   70    73     1     0     0
SMALL
abcg2


@<TRIPOS>ATOM
      1 O2          16.7870    18.5760    34.2050 oh         1 MC9      -0.658000
      2 O1          13.6620    17.7600    36.8800 oh         1 MC9      -0.657000
      3 C1          14.3200    18.3730    35.8000 c6         1 MC9       0.210500
      4 C2          14.9540    17.2740    34.9500 c6         1 MC9      -0.064400
      5 C3          15.6800    17.8340    33.7360 c6         1 MC9       0.176300
      6 C4          14.7360    18.6970    32.8980 c6         1 MC9      -0.075200
      7 C5          14.0840    19.7630    33.7330 ce         1 MC9      -0.068200
      8 C6          14.1470    21.0640    33.4040 cf         1 MC9      -0.163000
      9 C7          13.6100    22.1700    34.1740 cf         1 MC9      -0.187000
     10 C8          13.5690    23.4560    33.7930 c2         1 MC9      -0.080400
     11 C9          14.0570    24.0010    32.4770 c6         1 MC9      -0.041200
     12 C10         13.4160    19.2290    34.9390 ce         1 MC9      -0.117200
     13 C11         12.9700    24.7950    31.7390 c6         1 MC9      -0.070400
     14 C12         12.3090    25.8490    32.6300 c6         1 MC9      -0.063400
     15 C13         11.7970    25.2380    33.9320 c5         1 MC9      -0.038000
     16 C14         12.9820    24.5390    34.6410 c5         1 MC9      -0.035500
     17 C15         12.4500    24.2590    36.0390 c5         1 MC9      -0.070400
     18 C16         11.5950    25.5060    36.3570 c5         1 MC9      -0.074400
     19 C17         11.4190    26.2660    35.0170 c5         1 MC9      -0.049700
     20 C18         10.6680    24.2470    33.6410 c3         1 MC9      -0.078100
     21 C19         12.1270    19.4300    35.2030 c2         1 MC9      -0.303000
     22 C20         10.1100    27.0580    34.8610 c3         1 MC9      -0.017500
     23 C22          8.8510    26.2650    35.0460 c2         1 MC9      -0.188200
     24 C24          6.5420    25.5130    34.4890 c3         1 MC9       0.239500
     25 C21         10.0980    28.2200    35.8620 c3         1 MC9      -0.087100
     26 C25          6.3630    24.4720    33.4070 cx         1 MC9      -0.126700
     27 C26          5.7780    24.8210    32.0760 cx         1 MC9      -0.120900
     28 C27          5.0160    23.9420    33.0270 cx         1 MC9      -0.120900
     29 O3           5.4000    26.3460    34.5120 oh         1 MC9      -0.658000
     30 C23          7.7930    26.3050    34.2450 c2         1 MC9      -0.273200
     31 HO2         17.2210    18.9830    33.4480 ho         1 MC9       0.441000
     32 HO1         13.4060    18.4450    37.5060 ho         1 MC9       0.444000
     33 H1          15.1260    19.0260    36.1660 h1         1 MC9       0.055700
     34 H21         15.6480    16.6880    35.5600 hc         1 MC9       0.062200
     35 H22A        14.1730    16.5910    34.6050 hc         1 MC9       0.062200
     36 H3          16.0180    16.9910    33.1160 h1         1 MC9       0.033700
     37 H41         15.2710    19.1370    32.0510 hc         1 MC9       0.052200
     38 H42         13.9680    18.0400    32.4730 hc         1 MC9       0.052200
     39 H6          14.6660    21.3060    32.4820 ha         1 MC9       0.167000
     40 H7          13.2060    21.9170    35.1480 ha         1 MC9       0.177000
     41 H91         14.8940    24.6790    32.6820 hc         1 MC9       0.045200
     42 H92         14.4460    23.2200    31.8240 hc         1 MC9       0.045200
     43 H111        13.4150    25.2790    30.8670 hc         1 MC9       0.040700
     44 H112        12.2160    24.1060    31.3490 hc         1 MC9       0.040700
     45 H121        13.0460    26.6250    32.8690 hc         1 MC9       0.039700
     46 H122        11.4990    26.3430    32.0850 hc         1 MC9       0.039700
     47 H14         13.7590    25.3140    34.7410 hc         1 MC9       0.052700
     48 H151        11.8320    23.3580    36.0510 hc         1 MC9       0.045200
     49 H152        13.2480    24.1060    36.7670 hc         1 MC9       0.045200
     50 H161        10.6410    25.2180    36.8020 hc         1 MC9       0.040700
     51 H162        12.0890    26.1430    37.0920 hc         1 MC9       0.040700
     52 H17         12.2100    27.0270    34.9760 hc         1 MC9       0.042700
     53 H181        10.1760    23.8910    34.5470 hc         1 MC9       0.035700
     54 H182         9.8990    24.7080    33.0220 hc         1 MC9       0.035700
     55 H183        11.0320    23.3650    33.1100 hc         1 MC9       0.035700
     56 H191        11.6370    18.9960    36.0660 ha         1 MC9       0.168500
     57 H192        11.5110    20.0330    34.5490 ha         1 MC9       0.168500
     58 H20         10.0980    27.4860    33.8520 hc         1 MC9       0.053700
     59 H22          8.7920    25.6480    35.9410 ha         1 MC9       0.166000
     60 H24          6.6500    24.9830    35.4480 h1         1 MC9       0.032700
     61 H211         9.2270    28.8590    35.7140 hc         1 MC9       0.034700
     62 H212        10.0680    27.8550    36.8910 hc         1 MC9       0.034700
     63 H213        10.9930    28.8380    35.7570 hc         1 MC9       0.034700
     64 H25          7.1770    23.7540    33.3940 hc         1 MC9       0.077700
     65 H261         5.4170    25.8310    31.9230 hc         1 MC9       0.072950
     66 H262         6.2120    24.3690    31.1940 hc         1 MC9       0.072950
     67 H271         4.9340    22.8880    32.7950 hc         1 MC9       0.072950
     68 H272         4.1430    24.3590    33.5100 hc         1 MC9       0.072950
     69 HO3          5.5610    27.0500    35.1480 ho         1 MC9       0.444000
     70 H23          7.8090    26.9090    33.3400 ha         1 MC9       0.181000
@<TRIPOS>BOND
     1     1     5 1   
     2     1    31 1   
     3     2     3 1   
     4     2    32 1   
     5     3     4 1   
     6     3    12 1   
     7     3    33 1   
     8     4     5 1   
     9     4    34 1   
    10     4    35 1   
    11     5     6 1   
    12     5    36 1   
    13     6     7 1   
    14     6    37 1   
    15     6    38 1   
    16     7     8 2   
    17     7    12 1   
    18     8     9 1   
    19     8    39 1   
    20     9    10 2   
    21     9    40 1   
    22    10    11 1   
    23    10    16 1   
    24    11    13 1   
    25    11    41 1   
    26    11    42 1   
    27    12    21 2   
    28    13    14 1   
    29    13    43 1   
    30    13    44 1   
    31    14    15 1   
    32    14    45 1   
    33    14    46 1   
    34    15    16 1   
    35    15    19 1   
    36    15    20 1   
    37    16    17 1   
    38    16    47 1   
    39    17    18 1   
    40    17    48 1   
    41    17    49 1   
    42    18    19 1   
    43    18    50 1   
    44    18    51 1   
    45    19    22 1   
    46    19    52 1   
    47    20    53 1   
    48    20    54 1   
    49    20    55 1   
    50    21    56 1   
    51    21    57 1   
    52    22    23 1   
    53    22    25 1   
    54    22    58 1   
    55    23    30 2   
    56    23    59 1   
    57    24    26 1   
    58    24    29 1   
    59    24    30 1   
    60    24    60 1   
    61    25    61 1   
    62    25    62 1   
    63    25    63 1   
    64    26    27 1   
    65    26    28 1   
    66    26    64 1   
    67    27    28 1   
    68    27    65 1   
    69    27    66 1   
    70    28    67 1   
    71    28    68 1   
    72    29    69 1   
    73    30    70 1   
@<TRIPOS>SUBSTRUCTURE
     1 MC9         1 TEMP              0 ****  ****    0 ROOT
