@<TRIPOS>MOLECULE
MCB
    7     6     1     0     0
SMALL
abcg2


@<TRIPOS>ATOM
      1 CA           1.2310    -0.1920    -0.0040 c3         1 MCB      -0.221100
      2 C           -0.1360     0.4020     0.0450 c          1 MCB       0.572900
      3 O           -1.1140    -0.0620    -0.4870 o          1 MCB      -0.515100
      4 HA1          1.2650    -1.1040    -0.5960 hc         1 MCB       0.062033
      5 HA2          1.9280     0.5430    -0.4130 hc         1 MCB       0.062033
      6 HA1A         1.5690    -0.3980     1.0140 hc         1 MCB       0.062033
      7 H           -0.2050     1.3380     0.6270 h4         1 MCB      -0.021800
@<TRIPOS>BOND
     1     1     2 1   
     2     1     4 1   
     3     1     5 1   
     4     1     6 1   
     5     2     3 2   
     6     2     7 1   
@<TRIPOS>SUBSTRUCTURE
     1 MCB         1 TEMP              0 ****  ****    0 ROOT
