@<TRIPOS>MOLECULE
MCB
    7     6     1     0     0
SMALL
No Charge or Current Charge


@<TRIPOS>ATOM
      1 CA           1.2390    -0.2110    -0.0140 c3         1 MCB      -0.221100
      2 C           -0.1490     0.4170     0.0520 c          1 MCB       0.572900
      3 O           -1.1290    -0.0660    -0.5050 o          1 MCB      -0.515100
      4 HA1          1.2610    -1.1320    -0.6080 hc         1 MCB       0.062033
      5 HA2          1.9440     0.5380    -0.3910 hc         1 MCB       0.062033
      6 HA1A         1.5990    -0.3730     1.0080 hc         1 MCB       0.062033
      7 H           -0.2260     1.3550     0.6440 h4         1 MCB      -0.021800
@<TRIPOS>BOND
     1     1     2 1   
     2     1     4 1   
     3     1     5 1   
     4     1     6 1   
     5     2     3 2   
     6     2     7 1   
@<TRIPOS>SUBSTRUCTURE
     1 MCB         1 TEMP              0 ****  ****    0 ROOT
