@<TRIPOS>MOLECULE
MCE
    8     7     1     0     0
SMALL
No Charge or Current Charge


@<TRIPOS>ATOM
      1 C1           1.7500    -0.3700     0.0070 c3         1 MCE      -0.102100
      2 C2           0.6170     0.6700     0.0070 c3         1 MCE       0.134600
      3 Cl          -1.0100    -0.1390     0.0590 cl         1 MCE      -0.300000
      4 H11          1.7070    -0.9860     0.9120 hc         1 MCE       0.047700
      5 H12          1.6700    -1.0270    -0.8670 hc         1 MCE       0.047700
      6 H13          2.7250     0.1300    -0.0250 hc         1 MCE       0.047700
      7 H21          0.6960     1.3240     0.8850 h1         1 MCE       0.061700
      8 H22          0.6580     1.2830    -0.9030 h1         1 MCE       0.061700
@<TRIPOS>BOND
     1     1     2 1   
     2     1     4 1   
     3     1     5 1   
     4     1     6 1   
     5     2     3 1   
     6     2     7 1   
     7     2     8 1   
@<TRIPOS>SUBSTRUCTURE
     1 MCE         1 TEMP              0 ****  ****    0 ROOT
