@<TRIPOS>MOLECULE
MCE
    8     7     1     0     0
SMALL
abcg2


@<TRIPOS>ATOM
      1 C1           1.7370    -0.3710     0.0070 c3         1 MCE      -0.102100
      2 C2           0.6380     0.6620     0.0060 c3         1 MCE       0.134600
      3 CL          -0.9880    -0.1270     0.0600 cl         1 MCE      -0.300000
      4 H11          1.7070    -0.9830     0.9070 hc         1 MCE       0.047700
      5 H12          1.6710    -1.0220    -0.8630 hc         1 MCE       0.047700
      6 H13          2.7020     0.1380    -0.0240 hc         1 MCE       0.047700
      7 H21          0.6920     1.3140     0.8740 h1         1 MCE       0.061700
      8 H22          0.6550     1.2730    -0.8930 h1         1 MCE       0.061700
@<TRIPOS>BOND
     1     1     2 1   
     2     1     4 1   
     3     1     5 1   
     4     1     6 1   
     5     2     3 1   
     6     2     7 1   
     7     2     8 1   
@<TRIPOS>SUBSTRUCTURE
     1 MCE         1 TEMP              0 ****  ****    0 ROOT
