@<TRIPOS>MOLECULE
MCF
   39    41     1     0     0
SMALL
abcg2


@<TRIPOS>ATOM
      1 O8          -8.5220    24.4320   -12.0130 oh         1 MCF      -0.646000
      2 C8          -7.1720    24.8150   -12.3310 c3         1 MCF       0.144000
      3 C7          -6.5970    23.8980   -13.4110 c3         1 MCF       0.184800
      4 N6          -6.5450    22.5000   -12.9910 nu         1 MCF      -0.936400
      5 C5          -5.7400    21.9910   -12.0310 c2         1 MCF       0.666100
      6 N4          -5.1830    22.5760   -11.0240 ne         1 MCF      -0.675100
      7 C10         -5.4370    23.8780   -10.6770 cc         1 MCF       0.081400
      8 C9          -6.2810    24.8720   -11.1430 cd         1 MCF       0.165300
      9 N1          -6.1640    26.0010   -10.3560 nd         1 MCF      -0.650000
     10 C2          -5.2790    25.7080    -9.4330 cc         1 MCF       0.418400
     11 N3          -4.8040    24.4360    -9.5650 na         1 MCF      -0.175500
     12 C1S         -3.8190    23.8500    -8.6860 c5         1 MCF       0.288300
     13 C2S         -4.2250    22.5110    -8.0440 c5         1 MCF       0.136300
     14 O2S         -5.0250    22.6570    -6.8930 oh         1 MCF      -0.692000
     15 O4S         -2.6040    23.6080    -9.3820 os         1 MCF      -0.449000
     16 C4S         -2.0510    22.3190    -9.0050 c5         1 MCF       0.154300
     17 C3S         -2.8620    21.8690    -7.7910 c5         1 MCF       0.102300
     18 O3S         -2.3670    22.4490    -6.5820 oh         1 MCF      -0.733000
     19 C5S         -2.1070    21.4010   -10.2230 c3         1 MCF       0.043600
     20 S5S         -1.3420    19.7670    -9.9590 ss         1 MCF      -0.449000
     21 C6S         -2.8090    18.7160    -9.7460 c3         1 MCF       0.046900
     22 HO8         -8.4950    23.5230   -11.6850 ho         1 MCF       0.441000
     23 H8          -7.2590    25.8200   -12.7470 h1         1 MCF       0.098700
     24 H7          -7.2370    23.9350   -14.2900 h1         1 MCF       0.058700
     25 H7A         -5.6020    24.2520   -13.6970 h1         1 MCF       0.058700
     26 HN6         -6.8670    21.8300   -13.6720 hn         1 MCF       0.481000
     27 H5          -5.5750    20.9210   -12.1300 h5         1 MCF       0.025800
     28 H2          -4.9370    26.3600    -8.6450 h5         1 MCF       0.059100
     29 H1S         -3.6540    24.5900    -7.8970 h2         1 MCF       0.077700
     30 H2S         -4.7830    21.9210    -8.7660 h1         1 MCF       0.114700
     31 HO2S        -4.4270    22.8730    -6.1610 ho         1 MCF       0.521000
     32 H4S         -1.0120    22.4800    -8.7120 h1         1 MCF       0.081700
     33 H3S         -2.9170    20.7870    -7.6960 h1         1 MCF       0.071700
     34 HO3S        -1.6490    21.9030    -6.2430 ho         1 MCF       0.520000
     35 H5S         -3.1350    21.2640   -10.5530 h1         1 MCF       0.092200
     36 H5SA        -1.5620    21.8840   -11.0340 h1         1 MCF       0.092200
     37 H6S         -3.4530    18.7840   -10.6220 h1         1 MCF       0.060700
     38 H6SA        -2.4460    17.6940    -9.6440 h1         1 MCF       0.060700
     39 H6SB        -3.3710    18.9840    -8.8520 h1         1 MCF       0.060700
@<TRIPOS>BOND
     1     1     2 1   
     2     1    22 1   
     3     2     3 1   
     4     2     8 1   
     5     2    23 1   
     6     3     4 1   
     7     3    24 1   
     8     3    25 1   
     9     4     5 1   
    10     4    26 1   
    11     5     6 2   
    12     5    27 1   
    13     6     7 1   
    14     7     8 2   
    15     7    11 1   
    16     8     9 1   
    17     9    10 2   
    18    10    11 1   
    19    10    28 1   
    20    11    12 1   
    21    12    13 1   
    22    12    15 1   
    23    12    29 1   
    24    13    14 1   
    25    13    17 1   
    26    13    30 1   
    27    14    31 1   
    28    15    16 1   
    29    16    17 1   
    30    16    19 1   
    31    16    32 1   
    32    17    18 1   
    33    17    33 1   
    34    18    34 1   
    35    19    20 1   
    36    19    35 1   
    37    19    36 1   
    38    20    21 1   
    39    21    37 1   
    40    21    38 1   
    41    21    39 1   
@<TRIPOS>SUBSTRUCTURE
     1 MCF         1 TEMP              0 ****  ****    0 ROOT
