@<TRIPOS>MOLECULE
MCF
   39    41     1     0     0
SMALL
No Charge or Current Charge


@<TRIPOS>ATOM
      1 O8          -8.5070    24.2940   -11.9340 oh         1 MCF      -0.646000
      2 C8          -7.2330    24.8440   -12.3210 c3         1 MCF       0.144000
      3 C7          -6.6390    23.9580   -13.4340 c3         1 MCF       0.184800
      4 N6          -6.7020    22.5310   -13.0480 nu         1 MCF      -0.936400
      5 C5          -5.9110    21.9410   -12.0740 c2         1 MCF       0.666100
      6 N4          -5.3930    22.5210   -11.0300 ne         1 MCF      -0.675100
      7 C10         -5.4990    23.8610   -10.6530 cc         1 MCF       0.081400
      8 C9          -6.2780    24.8900   -11.1520 cd         1 MCF       0.165300
      9 N1          -6.0570    26.0620   -10.4520 nd         1 MCF      -0.650000
     10 C2          -5.1620    25.7490    -9.5270 cc         1 MCF       0.418400
     11 N3          -4.7890    24.4250    -9.6060 na         1 MCF      -0.175500
     12 C1S         -3.8540    23.7890    -8.6690 c5         1 MCF       0.288300
     13 C2S         -4.2070    22.3910    -8.0480 c5         1 MCF       0.136300
     14 O2S         -5.0200    22.4670    -6.8680 oh         1 MCF      -0.692000
     15 O4S         -2.5410    23.6620    -9.2720 os         1 MCF      -0.449000
     16 C4S         -1.9760    22.3750    -8.9180 c5         1 MCF       0.154300
     17 C3S         -2.7840    21.9120    -7.6550 c5         1 MCF       0.102300
     18 O3S         -2.3600    22.5560    -6.4320 oh         1 MCF      -0.733000
     19 C5S         -2.0730    21.4370   -10.1500 c3         1 MCF       0.043600
     20 S5S         -1.3380    19.7580    -9.8500 ss         1 MCF      -0.449000
     21 C6S         -2.8770    18.7300    -9.7710 c3         1 MCF       0.046900
     22 HO8         -8.3690    23.3230   -12.0390 ho         1 MCF       0.441000
     23 H8          -7.3500    25.8640   -12.7110 h1         1 MCF       0.098700
     24 H7          -7.2160    24.1200   -14.3550 h1         1 MCF       0.058700
     25 H7A         -5.6030    24.2610   -13.6380 h1         1 MCF       0.058700
     26 HN6         -6.9820    21.8810   -13.7840 hn         1 MCF       0.481000
     27 H5          -5.7660    20.8680   -12.2200 h5         1 MCF       0.025800
     28 H2          -4.7530    26.4220    -8.7820 h5         1 MCF       0.059100
     29 H1S         -3.7630    24.5000    -7.8380 h2         1 MCF       0.077700
     30 H2S         -4.6540    21.7160    -8.7890 h1         1 MCF       0.114700
     31 HO2S        -4.3480    22.5840    -6.1490 ho         1 MCF       0.521000
     32 H4S         -0.9110    22.5080    -8.6830 h1         1 MCF       0.081700
     33 H3S         -2.7520    20.8190    -7.5380 h1         1 MCF       0.071700
     34 HO3S        -1.4430    22.2450    -6.2320 ho         1 MCF       0.520000
     35 H5S         -3.1170    21.3270   -10.4640 h1         1 MCF       0.092200
     36 H5SA        -1.5290    21.9070   -10.9800 h1         1 MCF       0.092200
     37 H6S         -3.4220    18.7990   -10.7210 h1         1 MCF       0.060700
     38 H6SA        -2.6120    17.6810    -9.5870 h1         1 MCF       0.060700
     39 H6SB        -3.5260    19.0810    -8.9580 h1         1 MCF       0.060700
@<TRIPOS>BOND
     1     1     2 1   
     2     1    22 1   
     3     2     3 1   
     4     2     8 1   
     5     2    23 1   
     6     3     4 1   
     7     3    24 1   
     8     3    25 1   
     9     4     5 1   
    10     4    26 1   
    11     5     6 2   
    12     5    27 1   
    13     6     7 1   
    14     7     8 2   
    15     7    11 1   
    16     8     9 1   
    17     9    10 2   
    18    10    11 1   
    19    10    28 1   
    20    11    12 1   
    21    12    13 1   
    22    12    15 1   
    23    12    29 1   
    24    13    14 1   
    25    13    17 1   
    26    13    30 1   
    27    14    31 1   
    28    15    16 1   
    29    16    17 1   
    30    16    19 1   
    31    16    32 1   
    32    17    18 1   
    33    17    33 1   
    34    18    34 1   
    35    19    20 1   
    36    19    35 1   
    37    19    36 1   
    38    20    21 1   
    39    21    37 1   
    40    21    38 1   
    41    21    39 1   
@<TRIPOS>SUBSTRUCTURE
     1 MCF         1 TEMP              0 ****  ****    0 ROOT
