@<TRIPOS>MOLECULE
MCG
   24    24     1     0     0
SMALL
No Charge or Current Charge


@<TRIPOS>ATOM
      1 N           84.0850    70.6070   107.1460 n8         1 MCG      -0.891800
      2 CA          83.0820    70.6100   106.0140 c3         1 MCG       0.082500
      3 C           82.5160    69.1640   105.5680 c          1 MCG       0.952600
      4 CB          83.8100    71.2370   104.7960 ca         1 MCG      -0.080300
      5 CG1         84.8780    70.5320   104.2000 ca         1 MCG      -0.159500
      6 CG2         83.4650    72.4980   104.2520 ca         1 MCG      -0.159500
      7 CD1         85.5740    71.0570   103.0970 ca         1 MCG      -0.120000
      8 CD2         84.1600    73.0240   103.1490 ca         1 MCG      -0.120000
      9 CE          85.2260    72.3140   102.5500 ca         1 MCG      -0.158600
     10 CZ          85.9800    72.8870   101.3520 c          1 MCG       0.928200
     11 OH2         85.6490    73.9810   100.9080 o          1 MCG      -0.851800
     12 OH1         86.9000    72.2400   100.8620 o          1 MCG      -0.851800
     13 O           81.4840    69.0920   104.9040 o          1 MCG      -0.843300
     14 OXT         83.1200    68.1480   105.9170 o          1 MCG      -0.843300
     15 CM          81.8810    71.4620   106.5240 c3         1 MCG      -0.041100
     16 H           84.8490    69.9740   106.8940 hn         1 MCG       0.323800
     17 H2          84.5230    71.5310   107.1940 hn         1 MCG       0.323800
     18 HG1         85.1790    69.5640   104.5940 ha         1 MCG       0.111500
     19 HG2         82.6580    73.0920   104.6710 ha         1 MCG       0.111500
     20 HD1         86.3900    70.4810   102.6670 ha         1 MCG       0.124000
     21 HD2         83.8650    73.9960   102.7580 ha         1 MCG       0.124000
     22 HM1         82.2100    72.4430   106.8880 hc         1 MCG       0.012367
     23 HM2         81.1410    71.6250   105.7310 hc         1 MCG       0.012367
     24 HM3         81.3730    70.9520   107.3520 hc         1 MCG       0.012367
@<TRIPOS>BOND
     1     1     2 1   
     2     1    16 1   
     3     1    17 1   
     4     2     3 1   
     5     2     4 1   
     6     2    15 1   
     7     3    13 1   
     8     3    14 1   
     9     4     5 ar  
    10     4     6 ar  
    11     5     7 ar  
    12     5    18 1   
    13     6     8 ar  
    14     6    19 1   
    15     7     9 ar  
    16     7    20 1   
    17     8     9 ar  
    18     8    21 1   
    19     9    10 1   
    20    10    11 1   
    21    10    12 1   
    22    15    22 1   
    23    15    23 1   
    24    15    24 1   
@<TRIPOS>SUBSTRUCTURE
     1 MCG         1 TEMP              0 ****  ****    0 ROOT
