@<TRIPOS>MOLECULE
MCG
   24    24     1     0     0
SMALL
bcc


@<TRIPOS>ATOM
      1 N           83.5270    71.2170   107.3200 n8         1 MCG      -0.891800
      2 CA          83.0960    70.6750   106.0350 c3         1 MCG       0.082500
      3 C           83.3260    69.1320   106.1070 c          1 MCG       0.952600
      4 CB          83.8700    71.2280   104.8320 ca         1 MCG      -0.080300
      5 CG1         84.0910    70.4620   103.6860 ca         1 MCG      -0.159500
      6 CG2         84.3330    72.5430   104.8130 ca         1 MCG      -0.159500
      7 CD1         84.7570    70.9810   102.5850 ca         1 MCG      -0.120000
      8 CD2         84.9960    73.0630   103.7100 ca         1 MCG      -0.120000
      9 CE          85.2270    72.2920   102.5750 ca         1 MCG      -0.158600
     10 CZ          85.9620    72.8640   101.3680 c          1 MCG       0.928200
     11 OH2         86.3620    74.0410   101.4680 o          1 MCG      -0.851800
     12 OH1         86.1020    72.1080   100.3860 o          1 MCG      -0.851800
     13 O           82.4300    68.3890   105.6630 o          1 MCG      -0.843300
     14 OXT         84.4200    68.7790   106.5890 o          1 MCG      -0.843300
     15 CM          81.6240    71.0380   105.8530 c3         1 MCG      -0.041100
     16 H           84.5000    70.9850   107.4690 hn         1 MCG       0.323800
     17 H2          83.4540    72.2270   107.3310 hn         1 MCG       0.323800
     18 HG1         83.7280    69.4430   103.6390 ha         1 MCG       0.111500
     19 HG2         84.1890    73.1860   105.6730 ha         1 MCG       0.111500
     20 HD1         84.9150    70.3520   101.7190 ha         1 MCG       0.124000
     21 HD2         85.3420    74.0880   103.7350 ha         1 MCG       0.124000
     22 HM1         81.4960    72.1230   105.8820 hc         1 MCG       0.012367
     23 HM2         81.2360    70.6870   104.8990 hc         1 MCG       0.012367
     24 HM3         81.0150    70.6060   106.6490 hc         1 MCG       0.012367
@<TRIPOS>BOND
     1     1     2 1   
     2     1    16 1   
     3     1    17 1   
     4     2     3 1   
     5     2     4 1   
     6     2    15 1   
     7     3    13 1   
     8     3    14 1   
     9     4     5 ar  
    10     4     6 ar  
    11     5     7 ar  
    12     5    18 1   
    13     6     8 ar  
    14     6    19 1   
    15     7     9 ar  
    16     7    20 1   
    17     8     9 ar  
    18     8    21 1   
    19     9    10 1   
    20    10    11 1   
    21    10    12 1   
    22    15    22 1   
    23    15    23 1   
    24    15    24 1   
@<TRIPOS>SUBSTRUCTURE
     1 MCG         1 TEMP              0 ****  ****    0 ROOT
