@<TRIPOS>MOLECULE
MCH
    5     4     1     0     0
SMALL
bcc


@<TRIPOS>ATOM
      1 C1          -0.0280     0.0050     0.5190 c3         1 MCH       0.237500
      2 CL2          0.7240     1.5050    -0.0220 cl         1 MCH      -0.118733
      3 CL1         -1.7010    -0.0740    -0.0290 cl         1 MCH      -0.118733
      4 CL3          0.8770    -1.3840    -0.0750 cl         1 MCH      -0.118733
      5 H1          -0.0180    -0.0130     1.6040 h3         1 MCH       0.117700
@<TRIPOS>BOND
     1     1     2 1   
     2     1     3 1   
     3     1     4 1   
     4     1     5 1   
@<TRIPOS>SUBSTRUCTURE
     1 MCH         1 TEMP              0 ****  ****    0 ROOT
