@<TRIPOS>MOLECULE
MCH
    5     4     1     0     0
SMALL
No Charge or Current Charge


@<TRIPOS>ATOM
      1 C1          -0.0280     0.0050     0.5420 c3         1 MCH       0.467300
      2 Cl2          0.7440     1.5440    -0.0400 cl         1 MCH      -0.195333
      3 Cl1         -1.7460    -0.0760    -0.0460 cl         1 MCH      -0.195333
      4 Cl3          0.9020    -1.4210    -0.0940 cl         1 MCH      -0.195333
      5 H1          -0.0180    -0.0140     1.6350 h3         1 MCH       0.117700
@<TRIPOS>BOND
     1     1     2 1   
     2     1     3 1   
     3     1     4 1   
     4     1     5 1   
@<TRIPOS>SUBSTRUCTURE
     1 MCH         1 TEMP              0 ****  ****    0 ROOT
