@<TRIPOS>MOLECULE
MCI
   47    49     1     0     0
SMALL
abcg2


@<TRIPOS>ATOM
      1 C2           8.7270    10.1170    85.3680 ca         1 MCI      -0.070300
      2 C1           8.0730     9.6130    86.4930 ca         1 MCI      -0.105000
      3 C3           9.3130     9.2110    84.4880 ca         1 MCI      -0.105000
      4 C4           9.2600     7.8420    84.7240 ca         1 MCI      -0.109500
      5 C5           8.6110     7.3550    85.8500 ca         1 MCI      -0.118000
      6 C6           8.0140     8.2470    86.7330 ca         1 MCI      -0.109500
      7 C12          8.8090    11.6010    85.1220 c3         1 MCI      -0.031100
      8 C13          9.4740    12.3710    86.2650 c3         1 MCI      -0.058400
      9 C16         10.8910    11.9000    86.6580 c3         1 MCI      -0.130700
     10 C19         11.1860    12.3720    88.0750 c3         1 MCI       0.088600
     11 S20         12.7480    11.6910    88.7330 sh         1 MCI      -0.341800
     12 C23         11.9100    12.4340    85.6640 c          1 MCI       0.770500
     13 O25         12.5730    13.4290    85.8730 o          1 MCI      -0.568100
     14 N26         11.8170    11.8930    84.3980 ne         1 MCI      -0.694100
     15 C27         12.3910    10.8420    83.9860 cf         1 MCI       0.468900
     16 C28         13.3300    10.0270    84.8920 c          1 MCI       0.596700
     17 O29         13.4940    10.4920    86.0260 o          1 MCI      -0.672000
     18 O30         13.8060     8.9990    84.3860 o          1 MCI      -0.672000
     19 C31         12.1330    10.3980    82.6200 cd         1 MCI      -0.232900
     20 C33         11.3770    11.0660    81.6900 cc         1 MCI      -0.144000
     21 C34         11.2470    10.3680    80.4720 cc         1 MCI      -0.102000
     22 C35         11.9020     9.1690    80.4950 cd         1 MCI      -0.367300
     23 S36         12.6880     8.8890    81.9950 ss         1 MCI       0.401000
     24 C37         12.0160     8.1900    79.3750 c3         1 MCI       0.175900
     25 N38         13.3020     8.2910    78.7030 na         1 MCI      -0.075700
     26 C41         14.3900     7.5290    78.8160 cc         1 MCI       0.380400
     27 N42         15.3320     8.0530    78.0760 nd         1 MCI      -0.399000
     28 N43         14.7960     9.1440    77.5240 nd         1 MCI      -0.065000
     29 N44         13.5870     9.2990    77.8950 nc         1 MCI      -0.201800
     30 H11          7.6000    10.2930    87.1920 ha         1 MCI       0.113500
     31 H31          9.8180     9.5780    83.6040 ha         1 MCI       0.113500
     32 H41          9.7310     7.1600    84.0280 ha         1 MCI       0.104500
     33 H51          8.5690     6.2900    86.0400 ha         1 MCI       0.101000
     34 H61          7.5020     7.8780    87.6120 ha         1 MCI       0.104500
     35 H121         9.3330    11.7880    84.1840 hc         1 MCI       0.052200
     36 H122         7.8010    12.0050    84.9930 hc         1 MCI       0.052200
     37 H131         9.4910    13.4370    86.0180 hc         1 MCI       0.032700
     38 H132         8.8390    12.2890    87.1510 hc         1 MCI       0.032700
     39 H161        10.9110    10.8080    86.6330 hc         1 MCI       0.099700
     40 H191        11.2160    13.4610    88.1160 h1         1 MCI       0.044200
     41 H192        10.3790    12.0350    88.7250 h1         1 MCI       0.044200
     42 HS          12.5510    12.1220    89.9850 hs         1 MCI       0.136800
     43 H331        10.9310    12.0310    81.8880 ha         1 MCI       0.142000
     44 H341        10.6970    10.7330    79.6170 ha         1 MCI       0.118000
     45 H371        11.9140     7.1610    79.7180 h1         1 MCI       0.064200
     46 H372        11.2370     8.3680    78.6360 h1         1 MCI       0.064200
     47 H411        14.4530     6.6360    79.4150 h5         1 MCI       0.073100
@<TRIPOS>BOND
     1     1     2 ar  
     2     1     3 ar  
     3     1     7 1   
     4     2     6 ar  
     5     2    30 1   
     6     3     4 ar  
     7     3    31 1   
     8     4     5 ar  
     9     4    32 1   
    10     5     6 ar  
    11     5    33 1   
    12     6    34 1   
    13     7     8 1   
    14     7    35 1   
    15     7    36 1   
    16     8     9 1   
    17     8    37 1   
    18     8    38 1   
    19     9    10 1   
    20     9    12 1   
    21     9    39 1   
    22    10    11 1   
    23    10    40 1   
    24    10    41 1   
    25    11    42 1   
    26    12    13 2   
    27    12    14 1   
    28    14    15 2   
    29    15    16 1   
    30    15    19 1   
    31    16    17 1   
    32    16    18 1   
    33    19    20 2   
    34    19    23 1   
    35    20    21 1   
    36    20    43 1   
    37    21    22 2   
    38    21    44 1   
    39    22    23 1   
    40    22    24 1   
    41    24    25 1   
    42    24    45 1   
    43    24    46 1   
    44    25    26 1   
    45    25    29 1   
    46    26    27 2   
    47    26    47 1   
    48    27    28 1   
    49    28    29 2   
@<TRIPOS>SUBSTRUCTURE
     1 MCI         1 TEMP              0 ****  ****    0 ROOT
