@<TRIPOS>MOLECULE
MCI
   47    49     1     0     0
SMALL
No Charge or Current Charge


@<TRIPOS>ATOM
      1 C2           8.2020    11.2660    84.7940 ca         1 MCI      -0.070300
      2 C1           8.1290     9.8560    84.8190 ca         1 MCI      -0.105000
      3 C3           7.9770    11.9400    83.5760 ca         1 MCI      -0.105000
      4 C4           7.6960    11.2200    82.4020 ca         1 MCI      -0.109500
      5 C5           7.6380     9.8170    82.4340 ca         1 MCI      -0.118000
      6 C6           7.8550     9.1370    83.6420 ca         1 MCI      -0.109500
      7 C12          8.4740    12.0800    86.0620 c3         1 MCI      -0.031100
      8 C13          9.5300    11.4870    87.0300 c3         1 MCI      -0.058400
      9 C16         10.9410    11.2520    86.4180 c3         1 MCI      -0.130700
     10 C19         11.8980    10.6320    87.4590 c3         1 MCI       0.088600
     11 S20         13.5570    10.1720    86.7880 sh         1 MCI      -0.341800
     12 C23         11.5400    12.5510    85.8380 c          1 MCI       0.770500
     13 O25         11.7640    13.5350    86.5270 o          1 MCI      -0.568100
     14 N26         11.7570    12.5170    84.4690 ne         1 MCI      -0.694100
     15 C27         12.7730    11.8930    83.9220 cf         1 MCI       0.468900
     16 C28         14.2010    12.5120    83.9220 c          1 MCI       0.596700
     17 O29         14.3880    13.5890    84.4840 o          1 MCI      -0.672000
     18 O30         15.1160    11.9450    83.3310 o          1 MCI      -0.672000
     19 C31         12.5160    10.5780    83.3020 cd         1 MCI      -0.232900
     20 C33         11.3330    10.1610    82.7390 cc         1 MCI      -0.144000
     21 C34         11.3520     8.8320    82.2570 cc         1 MCI      -0.102000
     22 C35         12.5560     8.2070    82.4410 cd         1 MCI      -0.367300
     23 S36         13.7290     9.2800    83.2330 ss         1 MCI       0.401000
     24 C37         12.9410     6.8040    82.0490 c3         1 MCI       0.175900
     25 N38         13.6100     6.7240    80.7440 na         1 MCI      -0.075700
     26 C41         13.2950     7.4010    79.5980 cc         1 MCI       0.380400
     27 N42         14.1560     7.0150    78.6750 nd         1 MCI      -0.399000
     28 N43         14.9900     6.1020    79.2770 nd         1 MCI      -0.065000
     29 N44         14.6750     5.9110    80.5300 nc         1 MCI      -0.201800
     30 H11          8.2770     9.3090    85.7460 ha         1 MCI       0.113500
     31 H31          8.0170    13.0260    83.5370 ha         1 MCI       0.113500
     32 H41          7.5250    11.7500    81.4670 ha         1 MCI       0.104500
     33 H51          7.4240     9.2600    81.5250 ha         1 MCI       0.101000
     34 H61          7.8050     8.0500    83.6700 ha         1 MCI       0.104500
     35 H121         8.7820    13.0980    85.7950 hc         1 MCI       0.052200
     36 H122         7.5340    12.1950    86.6140 hc         1 MCI       0.052200
     37 H131         9.6260    12.1670    87.8860 hc         1 MCI       0.032700
     38 H132         9.1530    10.5430    87.4430 hc         1 MCI       0.032700
     39 H161        10.8340    10.5270    85.6040 hc         1 MCI       0.099700
     40 H191        12.0470    11.3360    88.2880 h1         1 MCI       0.044200
     41 H192        11.4440     9.7210    87.8700 h1         1 MCI       0.044200
     42 HS          14.0550     9.6800    87.9470 hs         1 MCI       0.136800
     43 H331        10.4450    10.7820    82.6700 ha         1 MCI       0.142000
     44 H341        10.4840     8.3720    81.7920 ha         1 MCI       0.118000
     45 H371        13.6050     6.3830    82.8160 h1         1 MCI       0.064200
     46 H372        12.0410     6.1770    82.0130 h1         1 MCI       0.064200
     47 H411        12.4830     8.1120    79.5070 h5         1 MCI       0.073100
@<TRIPOS>BOND
     1     1     2 ar  
     2     1     3 ar  
     3     1     7 1   
     4     2     6 ar  
     5     2    30 1   
     6     3     4 ar  
     7     3    31 1   
     8     4     5 ar  
     9     4    32 1   
    10     5     6 ar  
    11     5    33 1   
    12     6    34 1   
    13     7     8 1   
    14     7    35 1   
    15     7    36 1   
    16     8     9 1   
    17     8    37 1   
    18     8    38 1   
    19     9    10 1   
    20     9    12 1   
    21     9    39 1   
    22    10    11 1   
    23    10    40 1   
    24    10    41 1   
    25    11    42 1   
    26    12    13 2   
    27    12    14 1   
    28    14    15 2   
    29    15    16 1   
    30    15    19 1   
    31    16    17 1   
    32    16    18 1   
    33    19    20 2   
    34    19    23 1   
    35    20    21 1   
    36    20    43 1   
    37    21    22 2   
    38    21    44 1   
    39    22    23 1   
    40    22    24 1   
    41    24    25 1   
    42    24    45 1   
    43    24    46 1   
    44    25    26 1   
    45    25    29 1   
    46    26    27 2   
    47    26    47 1   
    48    27    28 1   
    49    28    29 2   
@<TRIPOS>SUBSTRUCTURE
     1 MCI         1 TEMP              0 ****  ****    0 ROOT
