@<TRIPOS>MOLECULE
MCJ
   77    79     1     0     0
SMALL
bcc


@<TRIPOS>ATOM
      1 C1           1.0770     6.8150     0.2660 ca         1 MCJ       0.138100
      2 N1           0.1550     3.3480    -0.5050 ns         1 MCJ      -0.530900
      3 O1           0.2160     7.1340     1.2370 oh         1 MCJ      -0.538100
      4 C3          -3.3760    -4.4880     0.6040 ca         1 MCJ       0.130100
      5 N3          -3.7290    -0.8370     0.7750 ns         1 MCJ      -0.491900
      6 O3          -4.5410    -4.9090     1.1080 oh         1 MCJ      -0.564100
      7 C4           1.9350     7.8430    -0.1640 ca         1 MCJ       0.093100
      8 O4           1.8650     9.0710     0.3860 oh         1 MCJ      -0.501100
      9 C6          -2.4660    -5.4860     0.2110 ca         1 MCJ       0.075100
     10 O6          -2.7800    -6.7900     0.3490 oh         1 MCJ      -0.513100
     11 C7           2.8650     7.5920    -1.1530 ca         1 MCJ      -0.121000
     12 O7          -0.4900     4.7010     1.1550 o          1 MCJ      -0.629100
     13 C9          -1.2390    -5.1320    -0.3140 ca         1 MCJ      -0.126000
     14 O9          -5.0960    -2.4910     1.4420 o          1 MCJ      -0.660100
     15 C10          2.9590     6.3250    -1.7260 ca         1 MCJ      -0.155000
     16 C12         -0.9030    -3.7870    -0.4590 ca         1 MCJ      -0.156000
     17 O12         -3.2690    -0.5780     3.4170 o          1 MCJ      -0.812300
     18 C13          2.1160     5.3140    -1.3190 ca         1 MCJ      -0.102000
     19 O14         -4.6150     1.1950     3.6180 o          1 MCJ      -0.812300
     20 C15         -1.7880    -2.8040    -0.0750 ca         1 MCJ      -0.086000
     21 C16          1.1560     5.5480    -0.3250 ca         1 MCJ      -0.216600
     22 C18         -3.0380    -3.1360     0.4650 ca         1 MCJ      -0.207600
     23 C19          0.2210     4.5080     0.1590 c          1 MCJ       0.692700
     24 C21         -4.0210    -2.1270     0.9370 c          1 MCJ       0.696700
     25 C22         -0.6260     2.2390    -0.0320 c3         1 MCJ       0.018700
     26 C24         -4.4290     0.2170     1.4760 c3         1 MCJ      -0.067300
     27 C25         -2.1090     2.5700     0.0550 c          1 MCJ       0.658100
     28 C27         -4.0580     0.2750     2.9910 c          1 MCJ       0.933600
     29 C30         -4.1420     1.5400     0.7940 c3         1 MCJ       0.158400
     30 C32         -0.0370     1.6100     1.2380 c3         1 MCJ       0.131400
     31 O33          1.3300     1.2710     0.9960 os         1 MCJ      -0.420900
     32 C34          1.5670     0.2210     0.2230 c          1 MCJ       0.631100
     33 O35          0.7230    -0.5370    -0.1710 o          1 MCJ      -0.520000
     34 C36          3.0420     0.1220    -0.1490 c3         1 MCJ       0.039700
     35 N37          3.2470    -1.0490    -0.9600 ns         1 MCJ      -0.530900
     36 C38          3.4690     1.3750    -0.9050 c3         1 MCJ       0.128400
     37 O39          2.5700     1.5720    -1.9760 oh         1 MCJ      -0.615800
     38 C40          3.1130    -2.2780    -0.4390 c          1 MCJ       0.698700
     39 O41          3.0550    -2.4460     0.7860 o          1 MCJ      -0.630100
     40 C42          3.0240    -3.4280    -1.3670 ca         1 MCJ      -0.229600
     41 C43          2.6660    -4.6700    -0.8260 ca         1 MCJ       0.139100
     42 C44          2.4820    -5.7760    -1.6740 ca         1 MCJ       0.098100
     43 C45          2.6890    -5.6420    -3.0320 ca         1 MCJ      -0.115000
     44 C46          3.0750    -4.4140    -3.5680 ca         1 MCJ      -0.149000
     45 C47          3.2370    -3.3190    -2.7480 ca         1 MCJ      -0.099000
     46 O48          2.4540    -4.8840     0.4770 oh         1 MCJ      -0.528100
     47 O49          2.0940    -6.9650    -1.1720 oh         1 MCJ      -0.496100
     48 HN1          0.7340     3.1830    -1.3120 hn         1 MCJ       0.332500
     49 HN3         -2.7980    -0.6070     0.4740 hn         1 MCJ       0.304500
     50 HO3         -5.0400    -4.0850     1.3630 ho         1 MCJ       0.502000
     51 HO6         -3.6470    -6.8800     0.7640 ho         1 MCJ       0.440000
     52 H7           3.5260     8.3880    -1.4730 ha         1 MCJ       0.143000
     53 H10          3.7020     6.1380    -2.4890 ha         1 MCJ       0.128000
     54 H13          2.2320     4.3370    -1.7680 ha         1 MCJ       0.121000
     55 H15         -1.4800    -1.7760    -0.1980 ha         1 MCJ       0.139000
     56 H22         -0.5870     1.4890    -0.8300 h1         1 MCJ       0.085700
     57 H24         -5.5050     0.0470     1.3920 h1         1 MCJ       0.080700
     58 H30         -4.6360     2.3540     1.3230 h1         1 MCJ       0.053200
     59 H30A        -4.4730     1.5350    -0.2450 h1         1 MCJ       0.053200
     60 H32         -0.0210     2.3170     2.0630 h1         1 MCJ       0.111200
     61 H32A        -0.5970     0.7300     1.5500 h1         1 MCJ       0.111200
     62 H36          3.6420     0.0610     0.7620 h1         1 MCJ       0.113700
     63 HN37         3.1000    -0.9270    -1.9500 hn         1 MCJ       0.325500
     64 H38          3.4690     2.2250    -0.2180 h1         1 MCJ       0.050200
     65 H38A         4.4960     1.2360    -1.2550 h1         1 MCJ       0.050200
     66 HO39         3.0280     2.0090    -2.7000 ho         1 MCJ       0.411000
     67 H45          2.5510    -6.5010    -3.6760 ha         1 MCJ       0.147000
     68 H46          3.2440    -4.3250    -4.6320 ha         1 MCJ       0.133000
     69 H47          3.5480    -2.3820    -3.1900 ha         1 MCJ       0.121000
     70 HO48         2.6510    -4.0320     0.9400 ho         1 MCJ       0.495000
     71 HO49         2.0540    -6.9240    -0.2080 ho         1 MCJ       0.451000
     72 H28         -0.2700     6.3050     1.4720 ho         1 MCJ       0.501000
     73 H29          1.1760     9.0970     1.0610 ho         1 MCJ       0.448000
     74 O10         -2.6600     3.4220    -0.5830 o          1 MCJ      -0.533000
     75 O15         -2.7150     1.7000     0.8450 os         1 MCJ      -0.418900
     76 H9          -0.5420    -5.9090    -0.6020 ha         1 MCJ       0.134000
     77 H12          0.0560    -3.5090    -0.8740 ha         1 MCJ       0.127000
@<TRIPOS>BOND
     1     1     3 1   
     2     1     7 ar  
     3     1    21 ar  
     4     2    23 1   
     5     2    25 1   
     6     2    48 1   
     7     3    72 1   
     8     4     6 1   
     9     4     9 ar  
    10     4    22 ar  
    11     5    24 1   
    12     5    26 1   
    13     5    49 1   
    14     6    50 1   
    15     7     8 1   
    16     7    11 ar  
    17     8    73 1   
    18     9    10 1   
    19     9    13 ar  
    20    10    51 1   
    21    11    15 ar  
    22    11    52 1   
    23    12    23 2   
    24    13    16 ar  
    25    13    76 1   
    26    14    24 2   
    27    15    18 ar  
    28    15    53 1   
    29    16    20 ar  
    30    16    77 1   
    31    17    28 1   
    32    18    21 ar  
    33    18    54 1   
    34    19    28 1   
    35    20    22 ar  
    36    20    55 1   
    37    21    23 1   
    38    22    24 1   
    39    25    27 1   
    40    25    30 1   
    41    25    56 1   
    42    26    28 1   
    43    26    29 1   
    44    26    57 1   
    45    27    74 2   
    46    27    75 1   
    47    29    58 1   
    48    29    59 1   
    49    29    75 1   
    50    30    31 1   
    51    30    60 1   
    52    30    61 1   
    53    31    32 1   
    54    32    33 2   
    55    32    34 1   
    56    34    35 1   
    57    34    36 1   
    58    34    62 1   
    59    35    38 1   
    60    35    63 1   
    61    36    37 1   
    62    36    64 1   
    63    36    65 1   
    64    37    66 1   
    65    38    39 2   
    66    38    40 1   
    67    40    41 ar  
    68    40    45 ar  
    69    41    42 ar  
    70    41    46 1   
    71    42    43 ar  
    72    42    47 1   
    73    43    44 ar  
    74    43    67 1   
    75    44    45 ar  
    76    44    68 1   
    77    45    69 1   
    78    46    70 1   
    79    47    71 1   
@<TRIPOS>SUBSTRUCTURE
     1 MCJ         1 TEMP              0 ****  ****    0 ROOT
