@<TRIPOS>MOLECULE
MCJ
   77    79     1     0     0
SMALL
No Charge or Current Charge


@<TRIPOS>ATOM
      1 C1           1.2870     7.3480     0.3720 ca         1 MCJ       0.138100
      2 N1           0.1330     3.8320    -0.3200 ns         1 MCJ      -0.463900
      3 O1           0.9070     7.5080     1.6770 oh         1 MCJ      -0.577100
      4 C3          -3.3480    -4.6280    -0.0960 ca         1 MCJ       0.130100
      5 N3          -3.5610    -0.9990     0.8680 ns         1 MCJ      -0.424900
      6 O3          -4.5090    -5.1160     0.4400 oh         1 MCJ      -0.603100
      7 C4           1.9250     8.4220    -0.2860 ca         1 MCJ       0.093100
      8 O4           2.1500     9.5900     0.3860 oh         1 MCJ      -0.540100
      9 C6          -2.4650    -5.5200    -0.7450 ca         1 MCJ       0.075100
     10 O6          -2.7860    -6.8450    -0.8250 oh         1 MCJ      -0.552100
     11 C7           2.3280     8.2940    -1.6220 ca         1 MCJ      -0.103000
     12 O7           0.0140     5.0710     1.5830 o          1 MCJ      -0.629100
     13 C9          -1.2680    -5.0500    -1.3030 ca         1 MCJ      -0.108000
     14 O9          -5.0630    -2.6810     1.1600 o          1 MCJ      -0.660100
     15 C10          2.0940     7.0910    -2.3050 ca         1 MCJ      -0.137000
     16 C12         -0.9530    -3.6860    -1.2190 ca         1 MCJ      -0.138000
     17 O12         -2.9000    -0.3370     3.5160 o          1 MCJ      -0.707000
     18 C13          1.4580     6.0170    -1.6570 ca         1 MCJ      -0.084000
     19 O14         -4.9390     0.2430     3.8880 o          1 MCJ      -0.707000
     20 C15         -1.8270    -2.7930    -0.5740 ca         1 MCJ      -0.068000
     21 C16          1.0420     6.1270    -0.3040 ca         1 MCJ      -0.216600
     22 C18         -3.0380    -3.2500     0.0060 ca         1 MCJ      -0.207600
     23 C19          0.3560     4.9800     0.4100 c          1 MCJ       0.625700
     24 C21         -3.9800    -2.3030     0.7230 c          1 MCJ       0.629700
     25 C22         -0.4920     2.5830     0.1960 c3         1 MCJ       0.018700
     26 C24         -4.2960     0.0650     1.6040 c3         1 MCJ      -0.067300
     27 C25         -2.0050     2.7540     0.4890 c          1 MCJ       0.609100
     28 C27         -4.0080     0.0100     3.1290 c          1 MCJ       0.723000
     29 C30         -3.9810     1.4720     1.0530 c3         1 MCJ       0.181600
     30 C32          0.2630     1.9560     1.4080 c3         1 MCJ       0.154600
     31 O33          1.5580     1.4760     0.9690 os         1 MCJ      -0.444100
     32 C34          1.6050     0.3350     0.2010 c          1 MCJ       0.582100
     33 O35          0.6200    -0.3430    -0.0670 o          1 MCJ      -0.471000
     34 C36          3.0560    -0.0670    -0.1560 c3         1 MCJ       0.039700
     35 N37          3.0760    -1.4130    -0.7780 ns         1 MCJ      -0.463900
     36 C38          3.7280     0.9880    -1.0650 c3         1 MCJ       0.151600
     37 O39          3.1390     0.9710    -2.3780 oh         1 MCJ      -0.678000
     38 C40          2.9910    -2.5940    -0.0820 c          1 MCJ       0.631700
     39 O41          3.0310    -2.6110     1.1430 o          1 MCJ      -0.630100
     40 C42          2.8230    -3.8610    -0.8920 ca         1 MCJ      -0.229600
     41 C43          2.6630    -5.1100    -0.2430 ca         1 MCJ       0.139100
     42 C44          2.4830    -6.2940    -0.9910 ca         1 MCJ       0.098100
     43 C45          2.4610    -6.2490    -2.3910 ca         1 MCJ      -0.097000
     44 C46          2.6200    -5.0190    -3.0490 ca         1 MCJ      -0.131000
     45 C47          2.8010    -3.8360    -2.3110 ca         1 MCJ      -0.081000
     46 O48          2.6760    -5.1890     1.1230 oh         1 MCJ      -0.567100
     47 O49          2.3290    -7.4880    -0.3430 oh         1 MCJ      -0.535100
     48 HN1          0.4400     3.8500    -1.2840 hn         1 MCJ       0.332500
     49 HN3         -2.6400    -0.7740     0.5180 hn         1 MCJ       0.304500
     50 HO3         -4.9780    -4.3230     0.8250 ho         1 MCJ       0.541000
     51 HO6         -3.6550    -6.9410    -0.3720 ho         1 MCJ       0.479000
     52 H7           2.8200     9.1220    -2.1260 ha         1 MCJ       0.125000
     53 H10          2.4060     6.9890    -3.3420 ha         1 MCJ       0.110000
     54 H13          1.3000     5.1050    -2.2270 ha         1 MCJ       0.103000
     55 H15         -1.5470    -1.7440    -0.5400 ha         1 MCJ       0.121000
     56 H22         -0.4690     1.8570    -0.6250 h1         1 MCJ       0.085700
     57 H24         -5.3720    -0.1080     1.4820 h1         1 MCJ       0.080700
     58 H30         -4.3390     2.2360     1.7570 h1         1 MCJ       0.053200
     59 H30A        -4.5020     1.6140     0.0960 h1         1 MCJ       0.053200
     60 H32          0.3790     2.7030     2.2020 h1         1 MCJ       0.111200
     61 H32A        -0.3220     1.1310     1.8400 h1         1 MCJ       0.111200
     62 H36          3.6080    -0.0980     0.7920 h1         1 MCJ       0.113700
     63 HN37         3.0190    -1.4650    -1.7870 hn         1 MCJ       0.325500
     64 H38          3.6320     1.9830    -0.6080 h1         1 MCJ       0.050200
     65 H38A         4.8000     0.7600    -1.1310 h1         1 MCJ       0.050200
     66 HO39         3.6330     1.6220    -2.9260 ho         1 MCJ       0.450000
     67 H45          2.3210    -7.1620    -2.9650 ha         1 MCJ       0.129000
     68 H46          2.6030    -4.9810    -4.1360 ha         1 MCJ       0.115000
     69 H47          2.9180    -2.9080    -2.8630 ha         1 MCJ       0.103000
     70 HO48         2.8100    -4.2550     1.4460 ho         1 MCJ       0.534000
     71 HO49         2.3730    -7.2840     0.6190 ho         1 MCJ       0.490000
     72 H28          0.4870     6.6430     1.9440 ho         1 MCJ       0.540000
     73 H29          1.7910     9.4570     1.2940 ho         1 MCJ       0.487000
     74 O10         -2.6530     3.7730     0.2830 o          1 MCJ      -0.484000
     75 O15         -2.5580     1.5570     0.8620 os         1 MCJ      -0.442100
     76 H9          -0.5890    -5.7380    -1.8010 ha         1 MCJ       0.116000
     77 H12         -0.0300    -3.3150    -1.6570 ha         1 MCJ       0.109000
@<TRIPOS>BOND
     1     1     3 1   
     2     1     7 ar  
     3     1    21 ar  
     4     2    23 1   
     5     2    25 1   
     6     2    48 1   
     7     3    72 1   
     8     4     6 1   
     9     4     9 ar  
    10     4    22 ar  
    11     5    24 1   
    12     5    26 1   
    13     5    49 1   
    14     6    50 1   
    15     7     8 1   
    16     7    11 ar  
    17     8    73 1   
    18     9    10 1   
    19     9    13 ar  
    20    10    51 1   
    21    11    15 ar  
    22    11    52 1   
    23    12    23 2   
    24    13    16 ar  
    25    13    76 1   
    26    14    24 2   
    27    15    18 ar  
    28    15    53 1   
    29    16    20 ar  
    30    16    77 1   
    31    17    28 1   
    32    18    21 ar  
    33    18    54 1   
    34    19    28 1   
    35    20    22 ar  
    36    20    55 1   
    37    21    23 1   
    38    22    24 1   
    39    25    27 1   
    40    25    30 1   
    41    25    56 1   
    42    26    28 1   
    43    26    29 1   
    44    26    57 1   
    45    27    74 2   
    46    27    75 1   
    47    29    58 1   
    48    29    59 1   
    49    29    75 1   
    50    30    31 1   
    51    30    60 1   
    52    30    61 1   
    53    31    32 1   
    54    32    33 2   
    55    32    34 1   
    56    34    35 1   
    57    34    36 1   
    58    34    62 1   
    59    35    38 1   
    60    35    63 1   
    61    36    37 1   
    62    36    64 1   
    63    36    65 1   
    64    37    66 1   
    65    38    39 2   
    66    38    40 1   
    67    40    41 ar  
    68    40    45 ar  
    69    41    42 ar  
    70    41    46 1   
    71    42    43 ar  
    72    42    47 1   
    73    43    44 ar  
    74    43    67 1   
    75    44    45 ar  
    76    44    68 1   
    77    45    69 1   
    78    46    70 1   
    79    47    71 1   
@<TRIPOS>SUBSTRUCTURE
     1 MCJ         1 TEMP              0 ****  ****    0 ROOT
