@<TRIPOS>MOLECULE
MCK
   63    64     1     0     0
SMALL
abcg2


@<TRIPOS>ATOM
      1 C1           4.1930     1.0680     0.6310 ca         1 MCK      -0.156600
      2 C2           4.5400     0.4550     1.8310 ca         1 MCK       0.170100
      3 C3           5.8530     0.5810     2.3090 ca         1 MCK       0.028100
      4 C4           6.7860     1.3190     1.6020 ca         1 MCK      -0.147000
      5 C5           6.4310     1.9350     0.4070 ca         1 MCK      -0.124000
      6 C6           5.1440     1.8030    -0.0800 ca         1 MCK      -0.078000
      7 C7           2.7940     0.9750     0.1210 c          1 MCK       0.627700
      8 O8           1.8170     1.2490     0.8000 o          1 MCK      -0.568100
      9 N9           2.6900     0.5920    -1.1650 ns         1 MCK      -0.492900
     10 O10          3.6260    -0.2720     2.4950 oh         1 MCK      -0.507100
     11 O11          6.1130    -0.0580     3.4710 oh         1 MCK      -0.559100
     12 C12          1.4190     0.5080    -1.8260 c3         1 MCK       0.057700
     13 C13          0.7180     1.8650    -1.7810 c          1 MCK       0.602100
     14 C14          0.5250    -0.6150    -1.2930 c3         1 MCK       0.148600
     15 O15          1.3260    -1.7910    -1.2400 os         1 MCK      -0.453100
     16 O16          1.2890     2.9200    -1.7630 o          1 MCK      -0.489000
     17 O17         -0.5950     1.7220    -1.8090 os         1 MCK      -0.440100
     18 C18         -1.4360     2.8730    -1.6370 c3         1 MCK       0.181600
     19 C19         -2.8540     2.3510    -1.5570 c3         1 MCK      -0.065300
     20 N20         -2.9580     1.4030    -0.4720 ns         1 MCK      -0.416900
     21 C21         -3.3410     1.7510    -2.9130 c          1 MCK       0.721000
     22 O22         -3.9230     0.6580    -2.8670 o          1 MCK      -0.709500
     23 O23         -3.1110     2.4620    -3.9080 o          1 MCK      -0.709500
     24 C24          0.8000    -2.8640    -0.6610 c          1 MCK       0.550100
     25 O25         -0.3120    -2.8960    -0.2000 o          1 MCK      -0.480000
     26 C26          1.7750    -4.0380    -0.6550 c3         1 MCK       0.113500
     27 N27          1.4170    -5.0810     0.2720 n8         1 MCK      -0.979200
     28 C28          1.8910    -4.5860    -2.0780 c3         1 MCK       0.170600
     29 C29         -4.0930     1.1500     0.1740 c          1 MCK       0.627700
     30 O30         -5.0720     1.9120     0.1020 o          1 MCK      -0.670100
     31 C31         -4.1470    -0.0500     1.0480 ca         1 MCK      -0.203600
     32 C32         -5.2250    -0.1540     1.9350 ca         1 MCK       0.125100
     33 C33         -5.3160    -1.2540     2.8060 ca         1 MCK       0.074100
     34 C34         -4.3540    -2.2440     2.7650 ca         1 MCK      -0.113000
     35 C35         -3.2940    -2.1570     1.8630 ca         1 MCK      -0.137000
     36 C36         -3.1910    -1.0750     1.0170 ca         1 MCK      -0.063000
     37 O37         -6.2050     0.7530     2.0180 oh         1 MCK      -0.604100
     38 O38         -6.3400    -1.3560     3.6770 oh         1 MCK      -0.553100
     39 O45          2.9020    -5.5600    -2.0990 oh         1 MCK      -0.644000
     40 H4           7.7960     1.4120     1.9840 ha         1 MCK       0.109000
     41 H5           7.1630     2.5180    -0.1350 ha         1 MCK       0.116000
     42 H6           4.8630     2.2900    -1.0050 ha         1 MCK       0.132000
     43 HN9          3.5120     0.3040    -1.6690 hn         1 MCK       0.323500
     44 HO10         4.0240    -0.6820     3.2720 ho         1 MCK       0.480000
     45 HO11         7.0430     0.0240     3.7100 ho         1 MCK       0.472000
     46 H12          1.6300     0.3080    -2.8810 h1         1 MCK       0.079700
     47 H14          0.1490    -0.3790    -0.2970 h1         1 MCK       0.086200
     48 H14A        -0.3190    -0.7710    -1.9650 h1         1 MCK       0.086200
     49 H18         -1.1520     3.3920    -0.7190 h1         1 MCK       0.055200
     50 H18A        -1.3310     3.5560    -2.4780 h1         1 MCK       0.055200
     51 H19         -3.4880     3.2100    -1.3270 h1         1 MCK       0.082700
     52 HN20        -2.2350     0.7040    -0.4330 hn         1 MCK       0.309500
     53 H26          2.7550    -3.6400    -0.3700 h1         1 MCK       0.093700
     54 HN27         1.3820    -4.7160     1.2150 hn         1 MCK       0.410000
     55 HN2A         0.4900    -5.4350     0.0680 hn         1 MCK       0.410000
     56 H28          0.9180    -5.0020    -2.3750 h1         1 MCK       0.029200
     57 H28A         2.1100    -3.7620    -2.7660 h1         1 MCK       0.029200
     58 H34         -4.4370    -3.0910     3.4350 ha         1 MCK       0.112000
     59 H35         -2.5550    -2.9450     1.8250 ha         1 MCK       0.115000
     60 H36         -2.3670    -1.0610     0.3160 ha         1 MCK       0.124000
     61 HO37        -6.0260     1.4130     1.2960 ho         1 MCK       0.539000
     62 HO38        -6.9200    -0.5890     3.6000 ho         1 MCK       0.478000
     63 HO45         2.9550    -5.9090    -2.9940 ho         1 MCK       0.438000
@<TRIPOS>BOND
     1     1     2 ar  
     2     1     6 ar  
     3     1     7 1   
     4     2     3 ar  
     5     2    10 1   
     6     3     4 ar  
     7     3    11 1   
     8     4     5 ar  
     9     4    40 1   
    10     5     6 ar  
    11     5    41 1   
    12     6    42 1   
    13     7     8 2   
    14     7     9 1   
    15     9    12 1   
    16     9    43 1   
    17    10    44 1   
    18    11    45 1   
    19    12    13 1   
    20    12    14 1   
    21    12    46 1   
    22    13    16 2   
    23    13    17 1   
    24    14    15 1   
    25    14    47 1   
    26    14    48 1   
    27    15    24 1   
    28    17    18 1   
    29    18    19 1   
    30    18    49 1   
    31    18    50 1   
    32    19    20 1   
    33    19    21 1   
    34    19    51 1   
    35    20    29 1   
    36    20    52 1   
    37    21    22 1   
    38    21    23 1   
    39    24    25 2   
    40    24    26 1   
    41    26    27 1   
    42    26    28 1   
    43    26    53 1   
    44    27    54 1   
    45    27    55 1   
    46    28    39 1   
    47    28    56 1   
    48    28    57 1   
    49    29    30 2   
    50    29    31 1   
    51    31    32 ar  
    52    31    36 ar  
    53    32    33 ar  
    54    32    37 1   
    55    33    34 ar  
    56    33    38 1   
    57    34    35 ar  
    58    34    58 1   
    59    35    36 ar  
    60    35    59 1   
    61    36    60 1   
    62    37    61 1   
    63    38    62 1   
    64    39    63 1   
@<TRIPOS>SUBSTRUCTURE
     1 MCK         1 TEMP              0 ****  ****    0 ROOT
