@<TRIPOS>MOLECULE
MCK
   63    64     1     0     0
SMALL
No Charge or Current Charge


@<TRIPOS>ATOM
      1 C1           4.4890     1.0890     0.7800 ca         1 MCK      -0.156600
      2 C2           5.1150     0.8140     2.0230 ca         1 MCK       0.170100
      3 C3           6.5110     0.9620     2.1770 ca         1 MCK       0.028100
      4 C4           7.3010     1.3880     1.1000 ca         1 MCK      -0.147000
      5 C5           6.6980     1.6660    -0.1340 ca         1 MCK      -0.124000
      6 C6           5.3090     1.5190    -0.2960 ca         1 MCK      -0.078000
      7 C7           2.9920     0.9450     0.5900 c          1 MCK       0.627700
      8 O8           2.1830     1.0430     1.5020 o          1 MCK      -0.568100
      9 N9           2.5760     0.7570    -0.7150 ns         1 MCK      -0.492900
     10 O10          4.4180     0.3630     3.1050 oh         1 MCK      -0.507100
     11 O11          7.0990     0.6820     3.3850 oh         1 MCK      -0.559100
     12 C12          1.1650     0.5790    -1.1620 c3         1 MCK       0.057700
     13 C13          0.3610     1.9050    -1.0890 c          1 MCK       0.602100
     14 C14          0.4160    -0.5730    -0.4400 c3         1 MCK       0.148600
     15 O15          1.2170    -1.7700    -0.5470 os         1 MCK      -0.453100
     16 O16          0.8120     2.9790    -0.7070 o          1 MCK      -0.489000
     17 O17         -0.9110     1.7410    -1.5720 os         1 MCK      -0.440100
     18 C18         -1.8010     2.8730    -1.5520 c3         1 MCK       0.181600
     19 C19         -3.1800     2.4070    -2.0690 c3         1 MCK      -0.065300
     20 N20         -3.6860     1.2050    -1.3520 ns         1 MCK      -0.416900
     21 C21         -3.1350     2.1720    -3.6020 c          1 MCK       0.721000
     22 O22         -3.1870     1.0240    -4.0260 o          1 MCK      -0.709500
     23 O23         -3.1610     3.1560    -4.3280 o          1 MCK      -0.709500
     24 C24          0.7440    -2.9170     0.0380 c          1 MCK       0.550100
     25 O25         -0.3010    -2.9790     0.6750 o          1 MCK      -0.480000
     26 C26          1.7390    -4.1110    -0.1280 c3         1 MCK       0.113500
     27 N27          1.5220    -5.2720     0.8280 n8         1 MCK      -0.979200
     28 C28          1.7560    -4.5580    -1.6220 c3         1 MCK       0.170600
     29 C29         -4.0210     1.1510    -0.0190 c          1 MCK       0.627700
     30 O30         -4.0200     2.1590     0.6820 o          1 MCK      -0.670100
     31 C31         -4.3890    -0.2060     0.5460 ca         1 MCK      -0.203600
     32 C32         -4.7770    -0.3330     1.9020 ca         1 MCK       0.125100
     33 C33         -5.1180    -1.5930     2.4400 ca         1 MCK       0.074100
     34 C34         -5.0740    -2.7400     1.6360 ca         1 MCK      -0.113000
     35 C35         -4.6880    -2.6310     0.2920 ca         1 MCK      -0.137000
     36 C36         -4.3480    -1.3790    -0.2520 ca         1 MCK      -0.063000
     37 O37         -4.8280     0.7680     2.7130 oh         1 MCK      -0.604100
     38 O38         -5.4910    -1.6880     3.7500 oh         1 MCK      -0.553100
     39 O45          2.8120    -5.5040    -1.8780 oh         1 MCK      -0.644000
     40 H4           8.3760     1.5060     1.2120 ha         1 MCK       0.109000
     41 H5           7.3070     2.0020    -0.9710 ha         1 MCK       0.116000
     42 H6           4.8810     1.7690    -1.2640 ha         1 MCK       0.132000
     43 HN9          3.3080     0.6660    -1.4080 hn         1 MCK       0.323500
     44 HO10         5.0890     0.2480     3.8150 ho         1 MCK       0.480000
     45 HO11         8.0670     0.8380     3.3120 ho         1 MCK       0.472000
     46 H12          1.1920     0.3170    -2.2280 h1         1 MCK       0.079700
     47 H14          0.2430    -0.3080     0.6110 h1         1 MCK       0.086200
     48 H14A        -0.5650    -0.7240    -0.9110 h1         1 MCK       0.086200
     49 H18         -1.9080     3.2590    -0.5300 h1         1 MCK       0.055200
     50 H18A        -1.4200     3.6870    -2.1840 h1         1 MCK       0.055200
     51 H19         -3.8950     3.2220    -1.9050 h1         1 MCK       0.082700
     52 HN20        -3.7220     0.3370    -1.8720 hn         1 MCK       0.309500
     53 H26          2.7300    -3.6850     0.0850 h1         1 MCK       0.093700
     54 HN27         1.5100    -4.9160     1.7920 hn         1 MCK       0.410000
     55 HN2A         0.5670    -5.6300     0.7040 hn         1 MCK       0.410000
     56 H28          0.7820    -4.9970    -1.8760 h1         1 MCK       0.029200
     57 H28A         1.8920    -3.6740    -2.2600 h1         1 MCK       0.029200
     58 H34         -5.3360    -3.7100     2.0530 ha         1 MCK       0.112000
     59 H35         -4.6500    -3.5200    -0.3340 ha         1 MCK       0.115000
     60 H36         -4.0520    -1.3440    -1.2980 ha         1 MCK       0.124000
     61 HO37        -4.5380     1.5330     2.1380 ho         1 MCK       0.539000
     62 HO38        -5.4480    -0.7720     4.1090 ho         1 MCK       0.478000
     63 HO45         2.7170    -5.7920    -2.8120 ho         1 MCK       0.438000
@<TRIPOS>BOND
     1     1     2 ar  
     2     1     6 ar  
     3     1     7 1   
     4     2     3 ar  
     5     2    10 1   
     6     3     4 ar  
     7     3    11 1   
     8     4     5 ar  
     9     4    40 1   
    10     5     6 ar  
    11     5    41 1   
    12     6    42 1   
    13     7     8 2   
    14     7     9 1   
    15     9    12 1   
    16     9    43 1   
    17    10    44 1   
    18    11    45 1   
    19    12    13 1   
    20    12    14 1   
    21    12    46 1   
    22    13    16 2   
    23    13    17 1   
    24    14    15 1   
    25    14    47 1   
    26    14    48 1   
    27    15    24 1   
    28    17    18 1   
    29    18    19 1   
    30    18    49 1   
    31    18    50 1   
    32    19    20 1   
    33    19    21 1   
    34    19    51 1   
    35    20    29 1   
    36    20    52 1   
    37    21    22 1   
    38    21    23 1   
    39    24    25 2   
    40    24    26 1   
    41    26    27 1   
    42    26    28 1   
    43    26    53 1   
    44    27    54 1   
    45    27    55 1   
    46    28    39 1   
    47    28    56 1   
    48    28    57 1   
    49    29    30 2   
    50    29    31 1   
    51    31    32 ar  
    52    31    36 ar  
    53    32    33 ar  
    54    32    37 1   
    55    33    34 ar  
    56    33    38 1   
    57    34    35 ar  
    58    34    58 1   
    59    35    36 ar  
    60    35    59 1   
    61    36    60 1   
    62    37    61 1   
    63    38    62 1   
    64    39    63 1   
@<TRIPOS>SUBSTRUCTURE
     1 MCK         1 TEMP              0 ****  ****    0 ROOT
