@<TRIPOS>MOLECULE
MCL
   29    28     1     0     0
SMALL
bcc


@<TRIPOS>ATOM
      1 N            3.9290     1.5530     0.7080 n8         1 MCL      -0.883800
      2 CA           3.6300     0.1480     0.4680 c3         1 MCL       0.015500
      3 CB           2.2440     0.0100    -0.1700 c3         1 MCL      -0.050400
      4 CG           1.1040     0.5200     0.7030 c3         1 MCL      -0.073400
      5 CD          -0.2510     0.4050     0.0170 c3         1 MCL      -0.080400
      6 CE          -1.4050     0.8700     0.9020 c3         1 MCL       0.101800
      7 NZ          -2.6480     0.8300     0.1670 n2         1 MCL      -0.593900
      8 CX1         -3.4580    -0.1360     0.2970 ce         1 MCL       0.345300
      9 C1          -3.2920    -1.3250     1.2060 c3         1 MCL      -0.165400
     10 CX2         -4.7710    -0.0690    -0.5040 c          1 MCL       0.839300
     11 O1          -4.8060     0.6920    -1.4840 o          1 MCL      -0.824300
     12 O2          -5.6920    -0.7890    -0.0710 o          1 MCL      -0.824300
     13 C            4.6620    -0.6070    -0.4030 c          1 MCL       0.901600
     14 O            5.4330     0.0770    -1.1070 o          1 MCL      -0.850300
     15 OXT          4.6170    -1.8550    -0.3530 o          1 MCL      -0.850300
     16 H            4.7790     1.6150     1.2550 hn         1 MCL       0.318800
     17 H2           4.1730     1.9710    -0.1830 hn         1 MCL       0.318800
     18 HA           3.5910    -0.3520     1.4430 h1         1 MCL       0.032700
     19 HB2          2.2390     0.5460    -1.1280 hc         1 MCL       0.037700
     20 HB3          2.0710    -1.0430    -0.4080 hc         1 MCL       0.037700
     21 HG2          1.0890    -0.0510     1.6380 hc         1 MCL       0.028200
     22 HG3          1.2930     1.5600     0.9800 hc         1 MCL       0.028200
     23 HD2         -0.2520     0.9930    -0.9050 hc         1 MCL       0.040700
     24 HD3         -0.4310    -0.6350    -0.2780 hc         1 MCL       0.040700
     25 HE2         -1.4110     0.2810     1.8270 h1         1 MCL       0.015200
     26 HE3         -1.2240     1.9090     1.1960 h1         1 MCL       0.015200
     27 H11         -3.7740    -1.1400     2.1690 hc         1 MCL       0.027367
     28 H12         -3.7680    -2.2050     0.7820 hc         1 MCL       0.027367
     29 H13         -2.2490    -1.5650     1.4050 hc         1 MCL       0.027367
@<TRIPOS>BOND
     1     1     2 1   
     2     1    16 1   
     3     1    17 1   
     4     2     3 1   
     5     2    13 1   
     6     2    18 1   
     7     3     4 1   
     8     3    19 1   
     9     3    20 1   
    10     4     5 1   
    11     4    21 1   
    12     4    22 1   
    13     5     6 1   
    14     5    23 1   
    15     5    24 1   
    16     6     7 1   
    17     6    25 1   
    18     6    26 1   
    19     7     8 2   
    20     8     9 1   
    21     8    10 1   
    22     9    27 1   
    23     9    28 1   
    24     9    29 1   
    25    10    11 1   
    26    10    12 1   
    27    13    14 1   
    28    13    15 1   
@<TRIPOS>SUBSTRUCTURE
     1 MCL         1 TEMP              0 ****  ****    0 ROOT
