@<TRIPOS>MOLECULE
MCL
   29    28     1     0     0
SMALL
No Charge or Current Charge


@<TRIPOS>ATOM
      1 N            4.0510     1.5220     0.8040 n8         1 MCL      -0.883800
      2 CA           3.6360     0.1040     0.4790 c3         1 MCL       0.015500
      3 CB           2.2390     0.0810    -0.2010 c3         1 MCL      -0.050400
      4 CG           1.0800     0.5890     0.6920 c3         1 MCL      -0.073400
      5 CD          -0.3000     0.4930     0.0040 c3         1 MCL      -0.080400
      6 CE          -1.4520     1.0020     0.8990 c3         1 MCL       0.101800
      7 NZ          -2.7420     0.8950     0.1980 n2         1 MCL      -0.593900
      8 CX1         -3.5470    -0.1450     0.2910 ce         1 MCL       0.345300
      9 C1          -3.2060    -1.3640     1.1630 c3         1 MCL      -0.165400
     10 CX2         -4.8920    -0.1600    -0.5080 c          1 MCL       0.839300
     11 O1          -5.2000     0.7980    -1.2220 o          1 MCL      -0.824300
     12 O2          -5.6510    -1.1270    -0.4250 o          1 MCL      -0.824300
     13 C            4.6710    -0.7700    -0.3580 c          1 MCL       0.901600
     14 O            5.1310    -0.3090    -1.3990 o          1 MCL      -0.850300
     15 OXT          5.0700    -1.8270     0.1200 o          1 MCL      -0.850300
     16 H            4.9430     1.5040     1.3090 hn         1 MCL       0.318800
     17 H2           4.2700     2.0070    -0.0730 hn         1 MCL       0.318800
     18 HA           3.5270    -0.4090     1.4440 h1         1 MCL       0.032700
     19 HB2          2.2740     0.6680    -1.1270 hc         1 MCL       0.037700
     20 HB3          2.0170    -0.9530    -0.4960 hc         1 MCL       0.037700
     21 HG2          1.0590     0.0050     1.6200 hc         1 MCL       0.028200
     22 HG3          1.2630     1.6330     0.9740 hc         1 MCL       0.028200
     23 HD2         -0.2810     1.0770    -0.9240 hc         1 MCL       0.040700
     24 HD3         -0.4890    -0.5500    -0.2770 hc         1 MCL       0.040700
     25 HE2         -1.4520     0.4470     1.8460 h1         1 MCL       0.015200
     26 HE3         -1.2580     2.0530     1.1490 h1         1 MCL       0.015200
     27 H11         -3.1430    -1.0860     2.2210 hc         1 MCL       0.027367
     28 H12         -3.9500    -2.1650     1.0910 hc         1 MCL       0.027367
     29 H13         -2.2440    -1.8040     0.8740 hc         1 MCL       0.027367
@<TRIPOS>BOND
     1     1     2 1   
     2     1    16 1   
     3     1    17 1   
     4     2     3 1   
     5     2    13 1   
     6     2    18 1   
     7     3     4 1   
     8     3    19 1   
     9     3    20 1   
    10     4     5 1   
    11     4    21 1   
    12     4    22 1   
    13     5     6 1   
    14     5    23 1   
    15     5    24 1   
    16     6     7 1   
    17     6    25 1   
    18     6    26 1   
    19     7     8 2   
    20     8     9 1   
    21     8    10 1   
    22     9    27 1   
    23     9    28 1   
    24     9    29 1   
    25    10    11 1   
    26    10    12 1   
    27    13    14 1   
    28    13    15 1   
@<TRIPOS>SUBSTRUCTURE
     1 MCL         1 TEMP              0 ****  ****    0 ROOT
