@<TRIPOS>MOLECULE
MCM
   22    23     1     0     0
SMALL
No Charge or Current Charge


@<TRIPOS>ATOM
      1 N           -0.8990     0.0690    -3.8640 nv         1 MCM      -1.092000
      2 CA          -0.3640     0.0460    -2.6090 ca         1 MCM       0.368000
      3 C2          -1.2020     0.0350    -1.4940 ca         1 MCM      -0.232000
      4 C3          -0.6520     0.0110    -0.2070 ca         1 MCM       0.225100
      5 C4          -1.0810    -0.0230     2.1690 c          1 MCM       0.677300
      6 C5           0.3710    -0.0390     2.3810 cc         1 MCM      -0.354200
      7 C6           1.2780    -0.0300     1.3480 cd         1 MCM       0.062600
      8 C7           0.7430    -0.0040    -0.0190 ca         1 MCM      -0.212800
      9 C8           1.5840     0.0070    -1.1530 ca         1 MCM      -0.006000
     10 C9           1.0240     0.0320    -2.4420 ca         1 MCM      -0.218000
     11 C10          2.7610    -0.0480     1.6300 c3         1 MCM      -0.065900
     12 O1          -1.5010     0.0010     0.8690 os         1 MCM      -0.341200
     13 O2          -1.8750    -0.0310     3.0980 o          1 MCM      -0.493000
     14 HN1         -0.2950    -0.1070    -4.6640 hn         1 MCM       0.472500
     15 HN2         -1.8940    -0.1080    -3.9880 hn         1 MCM       0.472500
     16 H2          -2.2800     0.0480    -1.6170 ha         1 MCM       0.137000
     17 H5           0.6790    -0.0580     3.4190 ha         1 MCM       0.210000
     18 H8           2.6660    -0.0030    -1.0500 ha         1 MCM       0.115000
     19 H9           1.6780     0.0410    -3.3100 ha         1 MCM       0.117000
     20 H101         2.9710    -0.0670     2.7060 hc         1 MCM       0.052700
     21 H102         3.2350    -0.9320     1.1890 hc         1 MCM       0.052700
     22 H103         3.2500     0.8430     1.2170 hc         1 MCM       0.052700
@<TRIPOS>BOND
     1     1     2 1   
     2     1    14 1   
     3     1    15 1   
     4     2     3 ar  
     5     2    10 ar  
     6     3     4 ar  
     7     3    16 1   
     8     4     8 ar  
     9     4    12 1   
    10     5     6 1   
    11     5    12 1   
    12     5    13 2   
    13     6     7 2   
    14     6    17 1   
    15     7     8 1   
    16     7    11 1   
    17     8     9 ar  
    18     9    10 ar  
    19     9    18 1   
    20    10    19 1   
    21    11    20 1   
    22    11    21 1   
    23    11    22 1   
@<TRIPOS>SUBSTRUCTURE
     1 MCM         1 TEMP              0 ****  ****    0 ROOT
