@<TRIPOS>MOLECULE
MCM
   22    23     1     0     0
SMALL
bcc


@<TRIPOS>ATOM
      1 N           -0.8930     0.1140    -3.8400 nv         1 MCM      -0.843200
      2 CA          -0.3630     0.0440    -2.5910 ca         1 MCM       0.229600
      3 C2          -1.1860     0.0330    -1.4610 ca         1 MCM      -0.250000
      4 C3          -0.6170     0.0120    -0.2020 ca         1 MCM       0.225100
      5 C4          -1.0500    -0.0230     2.1450 c          1 MCM       0.752800
      6 C5           0.3700    -0.0420     2.3700 cc         1 MCM      -0.304200
      7 C6           1.2610    -0.0300     1.3490 cd         1 MCM       0.062600
      8 C7           0.7670    -0.0030     0.0000 ca         1 MCM      -0.212800
      9 C8           1.5750     0.0050    -1.1460 ca         1 MCM      -0.024000
     10 C9           1.0340     0.0280    -2.4070 ca         1 MCM      -0.236000
     11 C10          2.7310    -0.0440     1.6050 c3         1 MCM      -0.065900
     12 O1          -1.4690     0.0020     0.8500 os         1 MCM      -0.341200
     13 O2          -1.9090    -0.0260     2.9950 o          1 MCM      -0.568500
     14 HN1         -0.3110    -0.1450    -4.6190 hn         1 MCM       0.417300
     15 HN2         -1.8670    -0.1040    -3.9610 hn         1 MCM       0.417300
     16 H2          -2.2640     0.0400    -1.5630 ha         1 MCM       0.155000
     17 H5           0.6960    -0.0630     3.4010 ha         1 MCM       0.160000
     18 H8           2.6510    -0.0080    -1.0410 ha         1 MCM       0.133000
     19 H9           1.6860     0.0350    -3.2710 ha         1 MCM       0.135000
     20 H101         2.9460    -0.0800     2.6710 hc         1 MCM       0.052700
     21 H102         3.2020    -0.9080     1.1330 hc         1 MCM       0.052700
     22 H103         3.2080     0.8460     1.1910 hc         1 MCM       0.052700
@<TRIPOS>BOND
     1     1     2 1   
     2     1    14 1   
     3     1    15 1   
     4     2     3 ar  
     5     2    10 ar  
     6     3     4 ar  
     7     3    16 1   
     8     4     8 ar  
     9     4    12 1   
    10     5     6 1   
    11     5    12 1   
    12     5    13 2   
    13     6     7 2   
    14     6    17 1   
    15     7     8 1   
    16     7    11 1   
    17     8     9 ar  
    18     9    10 ar  
    19     9    18 1   
    20    10    19 1   
    21    11    20 1   
    22    11    21 1   
    23    11    22 1   
@<TRIPOS>SUBSTRUCTURE
     1 MCM         1 TEMP              0 ****  ****    0 ROOT
