@<TRIPOS>MOLECULE
MCO
   28    28     1     0     0
SMALL
bcc


@<TRIPOS>ATOM
      1 O2           1.8250     1.6620     1.0440 o          1 MCO      -0.827800
      2 C9           2.4600     1.2310     0.0690 c          1 MCO       0.939600
      3 O3           3.3930     1.7950    -0.5380 o          1 MCO      -0.827800
      4 C8           2.1440    -0.2010    -0.4090 c5         1 MCO      -0.029300
      5 C7           3.0160    -1.2170     0.3430 c5         1 MCO      -0.077400
      6 C6           2.1290    -2.4490     0.4670 c5         1 MCO      -0.098400
      7 C5           0.7520    -1.8480     0.7060 c5         1 MCO       0.108000
      8 N            0.7880    -0.6380    -0.1050 n          1 MCO      -0.441800
      9 C4          -0.2620     0.0430    -0.5760 c          1 MCO       0.679100
     10 O1          -0.1290     0.9920    -1.3440 o          1 MCO      -0.609100
     11 C2          -1.6520    -0.4310    -0.1710 c3         1 MCO      -0.135700
     12 C3          -2.1840    -1.3680    -1.2580 c3         1 MCO      -0.084100
     13 C1          -2.5460     0.7880     0.0400 c3         1 MCO       0.072700
     14 S           -4.1630     0.2450     0.6970 sh         1 MCO      -0.472900
     15 HC81         2.3220    -0.2750    -1.4870 h1         1 MCO       0.049700
     16 HC71         3.9570    -1.4100    -0.1690 hc         1 MCO       0.048700
     17 HC72         3.2550    -0.8400     1.3410 hc         1 MCO       0.048700
     18 HC61         2.1290    -3.0190    -0.4650 hc         1 MCO       0.029700
     19 HC62         2.4320    -3.1220     1.2690 hc         1 MCO       0.029700
     20 HC51        -0.0460    -2.5220     0.3970 h1         1 MCO       0.029700
     21 HC52         0.6050    -1.6110     1.7640 h1         1 MCO       0.029700
     22 HC21        -1.6040    -0.9760     0.7760 hc         1 MCO       0.063700
     23 HC31        -1.5230    -2.2240    -1.4010 hc         1 MCO       0.035700
     24 HC32        -3.1690    -1.7590    -1.0020 hc         1 MCO       0.035700
     25 HC33        -2.2670    -0.8410    -2.2090 hc         1 MCO       0.035700
     26 HC11        -2.0920     1.4690     0.7590 h1         1 MCO       0.079700
     27 HC12        -2.6950     1.3230    -0.8960 h1         1 MCO       0.079700
     28 HS1         -4.6740     1.4630     0.9070 hs         1 MCO       0.208800
@<TRIPOS>BOND
     1     1     2 1   
     2     2     3 1   
     3     2     4 1   
     4     4     5 1   
     5     4     8 1   
     6     4    15 1   
     7     5     6 1   
     8     5    16 1   
     9     5    17 1   
    10     6     7 1   
    11     6    18 1   
    12     6    19 1   
    13     7     8 1   
    14     7    20 1   
    15     7    21 1   
    16     8     9 1   
    17     9    10 2   
    18     9    11 1   
    19    11    12 1   
    20    11    13 1   
    21    11    22 1   
    22    12    23 1   
    23    12    24 1   
    24    12    25 1   
    25    13    14 1   
    26    13    26 1   
    27    13    27 1   
    28    14    28 1   
@<TRIPOS>SUBSTRUCTURE
     1 MCO         1 TEMP              0 ****  ****    0 ROOT
