@<TRIPOS>MOLECULE
MCO
   28    28     1     0     0
SMALL
No Charge or Current Charge


@<TRIPOS>ATOM
      1 O2           2.0960     1.7910     0.9500 o          1 MCO      -0.722500
      2 C9           2.5550     1.2740    -0.0620 c          1 MCO       0.729000
      3 O3           3.2480     1.9080    -0.8480 o          1 MCO      -0.722500
      4 C8           2.2370    -0.2290    -0.3830 c5         1 MCO      -0.029300
      5 C7           3.0380    -1.1490     0.5840 c5         1 MCO      -0.077400
      6 C6           2.2330    -2.4670     0.4970 c5         1 MCO      -0.098400
      7 C5           0.7720    -1.9600     0.6070 c5         1 MCO       0.108000
      8 N            0.8350    -0.6780    -0.1270 n          1 MCO      -0.374800
      9 C4          -0.2930    -0.0080    -0.6560 c          1 MCO       0.612100
     10 O1          -0.1490     0.9060    -1.4590 o          1 MCO      -0.609100
     11 C2          -1.7120    -0.4580    -0.2300 c3         1 MCO      -0.135700
     12 C3          -2.3450    -1.3380    -1.3370 c3         1 MCO      -0.084100
     13 C1          -2.5800     0.7720     0.1220 c3         1 MCO       0.120600
     14 S           -4.2200     0.3410     0.8840 sh         1 MCO      -0.520800
     15 HC81         2.5070    -0.4280    -1.4280 h1         1 MCO       0.049700
     16 HC71         4.0840    -1.2680     0.2790 hc         1 MCO       0.048700
     17 HC72         3.0380    -0.7610     1.6100 hc         1 MCO       0.048700
     18 HC61         2.4050    -2.9700    -0.4620 hc         1 MCO       0.029700
     19 HC62         2.4910    -3.1770     1.2910 hc         1 MCO       0.029700
     20 HC51         0.0650    -2.6690     0.1570 h1         1 MCO       0.029700
     21 HC52         0.4850    -1.7900     1.6530 h1         1 MCO       0.029700
     22 HC21        -1.6390    -1.0860     0.6630 hc         1 MCO       0.063700
     23 HC31        -1.6960    -2.1910    -1.5700 hc         1 MCO       0.035700
     24 HC32        -3.3170    -1.7350    -1.0200 hc         1 MCO       0.035700
     25 HC33        -2.4940    -0.7610    -2.2580 hc         1 MCO       0.035700
     26 HC11        -2.0330     1.4050     0.8340 h1         1 MCO       0.079700
     27 HC12        -2.7600     1.3690    -0.7830 h1         1 MCO       0.079700
     28 HS1         -4.6500     1.6190     1.0390 hs         1 MCO       0.208800
@<TRIPOS>BOND
     1     1     2 1   
     2     2     3 1   
     3     2     4 1   
     4     4     5 1   
     5     4     8 1   
     6     4    15 1   
     7     5     6 1   
     8     5    16 1   
     9     5    17 1   
    10     6     7 1   
    11     6    18 1   
    12     6    19 1   
    13     7     8 1   
    14     7    20 1   
    15     7    21 1   
    16     8     9 1   
    17     9    10 2   
    18     9    11 1   
    19    11    12 1   
    20    11    13 1   
    21    11    22 1   
    22    12    23 1   
    23    12    24 1   
    24    12    25 1   
    25    13    14 1   
    26    13    26 1   
    27    13    27 1   
    28    14    28 1   
@<TRIPOS>SUBSTRUCTURE
     1 MCO         1 TEMP              0 ****  ****    0 ROOT
