@<TRIPOS>MOLECULE
MCP
   22    22     1     0     0
SMALL
No Charge or Current Charge


@<TRIPOS>ATOM
      1 N           -1.3900    -0.3610     0.0210 n7         1 MCP      -0.856400
      2 C1           0.0180    -0.2110    -0.5180 c6         1 MCP       0.037500
      3 C2           0.7980     0.8690     0.2880 c6         1 MCP      -0.048400
      4 C3           0.7850     0.5950     1.8190 c6         1 MCP      -0.062700
      5 C4          -0.6790     0.3950     2.3020 c6         1 MCP      -0.064400
      6 C5          -1.4260    -0.6780     1.4660 c6         1 MCP       0.169800
      7 C6           0.1410     0.0600    -2.0820 c          1 MCP       0.723000
      8 O1          -0.7610     0.6870    -2.6270 o          1 MCP      -0.734000
      9 O2           0.8270    -0.7300    -2.7200 o          1 MCP      -0.734000
     10 C7           1.7080    -0.5930     2.2190 c3         1 MCP      -0.079100
     11 HN          -1.8680    -1.1080    -0.4990 hn         1 MCP       0.430000
     12 H1           0.5220    -1.1740    -0.3470 h1         1 MCP      -0.004300
     13 H21          0.3540     1.8550     0.0910 hc         1 MCP       0.047200
     14 H22          1.8340     0.9260    -0.0730 hc         1 MCP       0.047200
     15 H3           1.1990     1.4750     2.3300 hc         1 MCP       0.018700
     16 H41         -0.6940     0.1170     3.3640 hc         1 MCP       0.023200
     17 H42         -1.2190     1.3490     2.2290 hc         1 MCP       0.023200
     18 H51         -0.9720    -1.6650     1.6320 h1         1 MCP       0.000200
     19 H52         -2.4740    -0.7360     1.7950 h1         1 MCP       0.000200
     20 H71          1.7200    -0.7310     3.3070 hc         1 MCP       0.020700
     21 H72          1.3850    -1.5400     1.7700 hc         1 MCP       0.020700
     22 H73          2.7420    -0.4120     1.9010 hc         1 MCP       0.020700
@<TRIPOS>BOND
     1     1     2 1   
     2     1     6 1   
     3     1    11 1   
     4     2     3 1   
     5     2     7 1   
     6     2    12 1   
     7     3     4 1   
     8     3    13 1   
     9     3    14 1   
    10     4     5 1   
    11     4    10 1   
    12     4    15 1   
    13     5     6 1   
    14     5    16 1   
    15     5    17 1   
    16     6    18 1   
    17     6    19 1   
    18     7     8 1   
    19     7     9 1   
    20    10    20 1   
    21    10    21 1   
    22    10    22 1   
@<TRIPOS>SUBSTRUCTURE
     1 MCP         1 TEMP              0 ****  ****    0 ROOT
