@<TRIPOS>MOLECULE
MCP
   22    22     1     0     0
SMALL
abcg2


@<TRIPOS>ATOM
      1 N           -1.3600    -0.1860     0.0370 n7         1 MCP      -0.856400
      2 C1          -0.0030    -0.2400    -0.4760 c6         1 MCP       0.037500
      3 C2           0.8390     0.7830     0.2790 c6         1 MCP      -0.048400
      4 C3           0.8130     0.5490     1.7940 c6         1 MCP      -0.062700
      5 C4          -0.6330     0.3980     2.2780 c6         1 MCP      -0.064400
      6 C5          -1.4220    -0.5890     1.4280 c6         1 MCP       0.169800
      7 C6           0.0320    -0.0510    -2.0070 c          1 MCP       0.723000
      8 O1          -1.0250    -0.2760    -2.6300 o          1 MCP      -0.734000
      9 O2           1.1310     0.2640    -2.5060 o          1 MCP      -0.734000
     10 C7           1.6820    -0.6390     2.2040 c3         1 MCP      -0.079100
     11 HN          -1.9520    -0.7720    -0.5340 hn         1 MCP       0.430000
     12 H1           0.4430    -1.2400    -0.2960 h1         1 MCP      -0.004300
     13 H21          0.4480     1.7830     0.0610 hc         1 MCP       0.047200
     14 H22          1.8680     0.7590    -0.0840 hc         1 MCP       0.047200
     15 H3           1.2370     1.4350     2.2780 hc         1 MCP       0.018700
     16 H41         -0.6510     0.0870     3.3270 hc         1 MCP       0.023200
     17 H42         -1.1340     1.3710     2.2310 hc         1 MCP       0.023200
     18 H51         -1.0370    -1.6100     1.5900 h1         1 MCP       0.000200
     19 H52         -2.4670    -0.5990     1.7500 h1         1 MCP       0.000200
     20 H71          1.6790    -0.7680     3.2880 hc         1 MCP       0.020700
     21 H72          1.3450    -1.5790     1.7640 hc         1 MCP       0.020700
     22 H73          2.7170    -0.4880     1.8920 hc         1 MCP       0.020700
@<TRIPOS>BOND
     1     1     2 1   
     2     1     6 1   
     3     1    11 1   
     4     2     3 1   
     5     2     7 1   
     6     2    12 1   
     7     3     4 1   
     8     3    13 1   
     9     3    14 1   
    10     4     5 1   
    11     4    10 1   
    12     4    15 1   
    13     5     6 1   
    14     5    16 1   
    15     5    17 1   
    16     6    18 1   
    17     6    19 1   
    18     7     8 1   
    19     7     9 1   
    20    10    20 1   
    21    10    21 1   
    22    10    22 1   
@<TRIPOS>SUBSTRUCTURE
     1 MCP         1 TEMP              0 ****  ****    0 ROOT
