@<TRIPOS>MOLECULE
MCR
    8     7     1     0     0
SMALL
bcc


@<TRIPOS>ATOM
      1 O1          -0.7480     2.4270    -0.9740 o          1 MCR      -0.823300
      2 C1          -0.4650     1.3950    -1.6100 c          1 MCR       0.942600
      3 O2          -0.9050     1.0350    -2.7160 o          1 MCR      -0.823300
      4 C2           0.5520     0.4620    -0.9270 c3         1 MCR      -0.096300
      5 S2           0.8600    -0.9830    -1.9840 sh         1 MCR      -0.389900
      6 H21          1.4850     1.0000    -0.7450 h1         1 MCR       0.033200
      7 H22          0.1680     0.1440     0.0430 h1         1 MCR       0.033200
      8 HS2          1.7480    -1.5900    -1.1850 hs         1 MCR       0.124800
@<TRIPOS>BOND
     1     1     2 1   
     2     2     3 1   
     3     2     4 1   
     4     4     5 1   
     5     4     6 1   
     6     4     7 1   
     7     5     8 1   
@<TRIPOS>SUBSTRUCTURE
     1 MCR         1 TEMP              0 ****  ****    0 ROOT
