@<TRIPOS>MOLECULE
MCR
    8     7     1     0     0
SMALL
No Charge or Current Charge


@<TRIPOS>ATOM
      1 O1           0.0050     2.5620    -1.6990 o          1 MCR      -0.718000
      2 C1          -0.4590     1.4330    -1.6050 c          1 MCR       0.732000
      3 O2          -1.5700     1.1240    -2.0150 o          1 MCR      -0.718000
      4 C2           0.4010     0.3400    -0.9160 c3         1 MCR      -0.048400
      5 S2           1.4970    -0.5980    -2.1070 sh         1 MCR      -0.437800
      6 H21          1.0320     0.8150    -0.1550 h1         1 MCR       0.033200
      7 H22         -0.2680    -0.3720    -0.4160 h1         1 MCR       0.033200
      8 HS2          2.0570    -1.4150    -1.1850 hs         1 MCR       0.124800
@<TRIPOS>BOND
     1     1     2 1   
     2     2     3 1   
     3     2     4 1   
     4     4     5 1   
     5     4     6 1   
     6     4     7 1   
     7     5     8 1   
@<TRIPOS>SUBSTRUCTURE
     1 MCR         1 TEMP              0 ****  ****    0 ROOT
