@<TRIPOS>MOLECULE
MCS
   20    19     1     0     0
SMALL
abcg2


@<TRIPOS>ATOM
      1 O          -26.1400   -55.9670   -67.6170 o          1 MCS      -0.736500
      2 C          -25.4790   -55.4600   -66.6920 c          1 MCS       0.727000
      3 CA         -23.9520   -55.2950   -66.9380 c3         1 MCS       0.032500
      4 N          -23.4850   -56.2390   -67.9320 n8         1 MCS      -1.011200
      5 CB         -23.7260   -53.8170   -67.2980 c3         1 MCS       0.083600
      6 SAI        -21.9380   -53.4980   -67.4390 ss         1 MCS      -0.513600
      7 CAK        -21.7560   -51.9120   -68.2150 c          1 MCS       0.687700
      8 OAC        -20.6290   -51.5720   -68.4850 o          1 MCS      -0.580100
      9 CAG        -22.9600   -51.0700   -68.4830 c3         1 MCS      -0.338400
     10 CAJ        -23.5860   -51.3850   -69.8790 c          1 MCS       0.741000
     11 OAE        -24.4230   -50.5650   -70.2810 o          1 MCS      -0.720500
     12 OAB        -23.1920   -52.4250   -70.4360 o          1 MCS      -0.720500
     13 OXT        -25.9020   -55.0290   -65.6030 o          1 MCS      -0.736500
     14 HA         -23.4390   -55.4920   -65.9910 h1         1 MCS       0.040700
     15 HN1        -24.1370   -56.2320   -68.7070 hn         1 MCS       0.395000
     16 HN2        -22.5810   -55.9660   -68.2990 hn         1 MCS       0.395000
     17 HBC1       -24.1480   -53.1710   -66.5290 h1         1 MCS       0.078700
     18 HBC2       -24.1950   -53.5940   -68.2570 h1         1 MCS       0.078700
     19 HAG1       -22.6520   -50.0230   -68.4530 hc         1 MCS       0.047700
     20 HAG2       -23.7260   -51.2020   -67.7160 hc         1 MCS       0.047700
@<TRIPOS>BOND
     1     1     2 1   
     2     2     3 1   
     3     2    13 1   
     4     3     4 1   
     5     3     5 1   
     6     3    14 1   
     7     4    15 1   
     8     4    16 1   
     9     5     6 1   
    10     5    17 1   
    11     5    18 1   
    12     6     7 1   
    13     7     8 2   
    14     7     9 1   
    15     9    10 1   
    16     9    19 1   
    17     9    20 1   
    18    10    11 1   
    19    10    12 1   
@<TRIPOS>SUBSTRUCTURE
     1 MCS         1 TEMP              0 ****  ****    0 ROOT
