@<TRIPOS>MOLECULE
MCS
   20    19     1     0     0
SMALL
No Charge or Current Charge


@<TRIPOS>ATOM
      1 O          -26.1710   -55.8000   -67.6940 o          1 MCS      -0.736500
      2 C          -25.4970   -55.6300   -66.6840 c          1 MCS       0.727000
      3 CA         -23.9520   -55.3340   -66.8480 c3         1 MCS       0.032500
      4 N          -23.1290   -56.3660   -67.5910 n8         1 MCS      -1.011200
      5 CB         -23.7570   -53.9220   -67.4620 c3         1 MCS       0.083600
      6 SAI        -21.9460   -53.4770   -67.5650 ss         1 MCS      -0.513600
      7 CAK        -21.9120   -51.9390   -68.5640 c          1 MCS       0.687700
      8 OAC        -20.8410   -51.5600   -69.0190 o          1 MCS      -0.580100
      9 CAG        -23.0770   -50.9740   -68.4390 c3         1 MCS      -0.338400
     10 CAJ        -23.7200   -50.9870   -69.8020 c          1 MCS       0.741000
     11 OAE        -23.3060   -50.2040   -70.6410 o          1 MCS      -0.720500
     12 OAB        -24.5870   -51.8160   -70.0150 o          1 MCS      -0.720500
     13 OXT        -25.9520   -55.7410   -65.5530 o          1 MCS      -0.736500
     14 HA         -23.5390   -55.2880   -65.8310 h1         1 MCS       0.040700
     15 HN1        -23.5370   -56.5010   -68.5250 hn         1 MCS       0.395000
     16 HN2        -22.2130   -55.9430   -67.7880 hn         1 MCS       0.395000
     17 HBC1       -24.2880   -53.1980   -66.8300 h1         1 MCS       0.078700
     18 HBC2       -24.1980   -53.8990   -68.4660 h1         1 MCS       0.078700
     19 HAG1       -22.6440   -49.9880   -68.2380 hc         1 MCS       0.047700
     20 HAG2       -23.7810   -51.3460   -67.6950 hc         1 MCS       0.047700
@<TRIPOS>BOND
     1     1     2 1   
     2     2     3 1   
     3     2    13 1   
     4     3     4 1   
     5     3     5 1   
     6     3    14 1   
     7     4    15 1   
     8     4    16 1   
     9     5     6 1   
    10     5    17 1   
    11     5    18 1   
    12     6     7 1   
    13     7     8 2   
    14     7     9 1   
    15     9    10 1   
    16     9    19 1   
    17     9    20 1   
    18    10    11 1   
    19    10    12 1   
@<TRIPOS>SUBSTRUCTURE
     1 MCS         1 TEMP              0 ****  ****    0 ROOT
