@<TRIPOS>MOLECULE
MCT
   17    17     1     0     0
SMALL
No Charge or Current Charge


@<TRIPOS>ATOM
      1 C1          -0.0710    -0.0520     1.6670 ca         1 MCT      -0.080300
      2 C2          -1.1550    -0.0910     0.7680 ca         1 MCT      -0.109000
      3 C3          -0.9210    -0.1640    -0.6150 ca         1 MCT       0.104100
      4 O3          -1.9690    -0.2030    -1.4880 oh         1 MCT      -0.541100
      5 C4           0.3990    -0.1970    -1.1110 ca         1 MCT       0.061100
      6 O4           0.6250    -0.2680    -2.4600 oh         1 MCT      -0.545100
      7 C5           1.4820    -0.1550    -0.2170 ca         1 MCT      -0.170000
      8 C6           1.2460    -0.0820     1.1690 ca         1 MCT      -0.098000
      9 C           -0.3220     0.0310     3.1660 c3         1 MCT      -0.041800
     10 H2          -2.1760    -0.0640     1.1390 ha         1 MCT       0.128000
     11 HO3         -1.5720    -0.2510    -2.3870 ho         1 MCT       0.472000
     12 HO4          1.5950    -0.2810    -2.6170 ho         1 MCT       0.468000
     13 H5           2.5050    -0.1780    -0.5850 ha         1 MCT       0.112000
     14 H6           2.0890    -0.0480     1.8560 ha         1 MCT       0.113000
     15 H1          -0.3740     1.0750     3.4960 hc         1 MCT       0.042033
     16 H2A         -1.2660    -0.4550     3.4410 hc         1 MCT       0.042033
     17 H3           0.4780    -0.4600     3.7330 hc         1 MCT       0.042033
@<TRIPOS>BOND
     1     1     2 ar  
     2     1     8 ar  
     3     1     9 1   
     4     2     3 ar  
     5     2    10 1   
     6     3     4 1   
     7     3     5 ar  
     8     4    11 1   
     9     5     6 1   
    10     5     7 ar  
    11     6    12 1   
    12     7     8 ar  
    13     7    13 1   
    14     8    14 1   
    15     9    15 1   
    16     9    16 1   
    17     9    17 1   
@<TRIPOS>SUBSTRUCTURE
     1 MCT         1 TEMP              0 ****  ****    0 ROOT
