@<TRIPOS>MOLECULE
MCT
   17    17     1     0     0
SMALL
bcc


@<TRIPOS>ATOM
      1 C1          -0.0510    -0.0410     1.6640 ca         1 MCT      -0.080300
      2 C2          -1.0970    -0.0160     0.7400 ca         1 MCT      -0.127000
      3 C3          -0.8600    -0.0490    -0.6240 ca         1 MCT       0.104100
      4 O3          -1.9070     0.0430    -1.4880 oh         1 MCT      -0.502100
      5 C4           0.4550    -0.1380    -1.1000 ca         1 MCT       0.061100
      6 O4           0.6200    -0.1940    -2.4400 oh         1 MCT      -0.506100
      7 C5           1.4990    -0.1830    -0.1890 ca         1 MCT      -0.188000
      8 C6           1.2460    -0.1320     1.1780 ca         1 MCT      -0.116000
      9 C           -0.3370     0.0150     3.1380 c3         1 MCT      -0.041800
     10 H2          -2.1260     0.0180     1.0820 ha         1 MCT       0.146000
     11 HO3         -1.7510    -0.5140    -2.2600 ho         1 MCT       0.433000
     12 HO4          1.5470    -0.3440    -2.6540 ho         1 MCT       0.429000
     13 H5           2.5220    -0.2430    -0.5450 ha         1 MCT       0.130000
     14 H6           2.0800    -0.1630     1.8680 ha         1 MCT       0.131000
     15 H1          -0.7140     0.9960     3.4320 hc         1 MCT       0.042033
     16 H2A         -1.0920    -0.7170     3.4290 hc         1 MCT       0.042033
     17 H3           0.5600    -0.1790     3.7240 hc         1 MCT       0.042033
@<TRIPOS>BOND
     1     1     2 ar  
     2     1     8 ar  
     3     1     9 1   
     4     2     3 ar  
     5     2    10 1   
     6     3     4 1   
     7     3     5 ar  
     8     4    11 1   
     9     5     6 1   
    10     5     7 ar  
    11     6    12 1   
    12     7     8 ar  
    13     7    13 1   
    14     8    14 1   
    15     9    15 1   
    16     9    16 1   
    17     9    17 1   
@<TRIPOS>SUBSTRUCTURE
     1 MCT         1 TEMP              0 ****  ****    0 ROOT
