@<TRIPOS>MOLECULE
MCV
   41    43     1     0     0
SMALL
bcc


@<TRIPOS>ATOM
      1 N1           3.7150    -1.7230     0.2480 nb         1 MCV      -0.879000
      2 C2           4.7760    -0.9170     0.3540 ca         1 MCV       0.945900
      3 N3           4.7800     0.4040     0.1990 nb         1 MCV      -0.788000
      4 C4           3.5910     0.9110    -0.0950 ca         1 MCV       0.543600
      5 C5           2.3950     0.2060    -0.2380 ca         1 MCV      -0.413400
      6 C6           2.5310    -1.1970    -0.0440 ca         1 MCV       0.795200
      7 CAA         -6.9070     1.4230     0.2680 c3         1 MCV       0.125700
      8 CAB         -1.9750    -3.4780    -0.6000 c3         1 MCV       0.125700
      9 NAC          5.9620    -1.5140     0.6120 nv         1 MCV      -0.941500
     10 NAD          1.5110    -2.0590    -0.1600 nv         1 MCV      -0.966500
     11 CAE         -5.0050    -0.6150    -0.0930 ca         1 MCV      -0.180000
     12 CAF         -4.0120    -1.5790    -0.2670 ca         1 MCV      -0.172000
     13 CAG          1.6680     2.3530    -0.6760 cc         1 MCV      -0.154400
     14 CAH         -3.3140     0.9710     0.5110 ca         1 MCV      -0.127000
     15 CAI         -0.8790     0.4060     0.5530 c3         1 MCV      -0.023100
     16 SAO          3.3550     2.6050    -0.3650 ss         1 MCV      -0.132900
     17 CAP         -4.6610     0.6700     0.2970 ca         1 MCV       0.112100
     18 CAR         -2.3180     0.0260     0.3450 ca         1 MCV      -0.073300
     19 CAT          1.2830     1.0580    -0.5810 cd         1 MCV      -0.021400
     20 CAU         -2.6780    -1.2710    -0.0530 ca         1 MCV       0.102100
     21 HAA         -7.4360     2.3510     0.4730 h1         1 MCV       0.039367
     22 HAAA        -7.1040     1.1270    -0.7660 h1         1 MCV       0.039367
     23 HAAB        -7.2940     0.6460     0.9330 h1         1 MCV       0.039367
     24 HAB         -1.0340    -4.0200    -0.6560 h1         1 MCV       0.040700
     25 HABA        -2.6250    -3.9760     0.1240 h1         1 MCV       0.040700
     26 HABB        -2.4540    -3.5050    -1.5820 h1         1 MCV       0.040700
     27 HNAC         5.9490    -2.4560     0.9640 hn         1 MCV       0.432300
     28 HNAA         6.7210    -0.9340     0.9250 hn         1 MCV       0.432300
     29 HNAD         1.6810    -3.0240     0.0660 hn         1 MCV       0.448300
     30 HNAB         0.5510    -1.7700    -0.2330 hn         1 MCV       0.448300
     31 HAE         -6.0320    -0.9020    -0.2700 ha         1 MCV       0.136000
     32 HAF         -4.3180    -2.5700    -0.5710 ha         1 MCV       0.134000
     33 HAG          1.0400     3.1970    -0.9170 h4         1 MCV       0.165000
     34 HAH         -3.0410     1.9750     0.8190 ha         1 MCV       0.149000
     35 HAI         -0.3640    -0.3460     1.1560 hc         1 MCV       0.054700
     36 HAIA        -0.8340     1.3310     1.1320 hc         1 MCV       0.054700
     37 HAJ         -0.2000    -0.2470    -1.4140 hc         1 MCV       0.053700
     38 HAJA        -0.6650     1.4270    -1.3240 hc         1 MCV       0.053700
     39 CAJ         -0.1420     0.6390    -0.7780 c3         1 MCV      -0.020200
     40 OAM         -5.5380     1.6800     0.4920 os         1 MCV      -0.316900
     41 OAN         -1.6620    -2.1580    -0.2040 os         1 MCV      -0.341900
@<TRIPOS>BOND
     1     1     2 ar  
     2     1     6 ar  
     3     2     3 ar  
     4     2     9 1   
     5     3     4 ar  
     6     4     5 ar  
     7     4    16 1   
     8     5     6 ar  
     9     5    19 1   
    10     6    10 1   
    11     7    21 1   
    12     7    22 1   
    13     7    23 1   
    14     7    40 1   
    15     8    24 1   
    16     8    25 1   
    17     8    26 1   
    18     8    41 1   
    19     9    27 1   
    20     9    28 1   
    21    10    29 1   
    22    10    30 1   
    23    11    12 ar  
    24    11    17 ar  
    25    11    31 1   
    26    12    20 ar  
    27    12    32 1   
    28    13    16 1   
    29    13    19 2   
    30    13    33 1   
    31    14    17 ar  
    32    14    18 ar  
    33    14    34 1   
    34    15    18 1   
    35    15    35 1   
    36    15    36 1   
    37    15    39 1   
    38    17    40 1   
    39    18    20 ar  
    40    19    39 1   
    41    20    41 1   
    42    37    39 1   
    43    38    39 1   
@<TRIPOS>SUBSTRUCTURE
     1 MCV         1 TEMP              0 ****  ****    0 ROOT
