@<TRIPOS>MOLECULE
MCV
   41    43     1     0     0
SMALL
No Charge or Current Charge


@<TRIPOS>ATOM
      1 N1           3.6620    -1.8020     0.1160 nb         1 MCV      -0.353000
      2 C2           4.7370    -1.0170     0.2650 ca         1 MCV       0.419900
      3 N3           4.7980     0.3210     0.1840 nb         1 MCV      -0.262000
      4 C4           3.6270     0.9240    -0.0790 ca         1 MCV       0.215300
      5 C5           2.4470     0.2280    -0.2530 ca         1 MCV      -0.282800
      6 C6           2.5100    -1.1720    -0.1460 ca         1 MCV       0.466900
      7 CAA         -7.0360     1.4100     0.2000 c3         1 MCV       0.148900
      8 CAB         -1.8520    -3.5570    -0.4850 c3         1 MCV       0.148900
      9 NAC          5.8960    -1.6580     0.5320 nv         1 MCV      -1.051900
     10 NAD          1.4560    -2.0050    -0.2950 nv         1 MCV      -1.076900
     11 CAE         -5.0040    -0.6510    -0.0880 ca         1 MCV      -0.162000
     12 CAF         -3.9870    -1.6140    -0.2190 ca         1 MCV      -0.154000
     13 CAG          1.7170     2.4640    -0.5530 cc         1 MCV      -0.204400
     14 CAH         -3.3350     1.0290     0.4640 ca         1 MCV      -0.109000
     15 CAI         -0.8600     0.4910     0.5690 c3         1 MCV      -0.023100
     16 SAO          3.4590     2.6860    -0.2390 ss         1 MCV      -0.132900
     17 CAP         -4.6780     0.6780     0.2540 ca         1 MCV       0.112100
     18 CAR         -2.3090     0.0710     0.3380 ca         1 MCV      -0.073300
     19 CAT          1.3350     1.1350    -0.5270 cd         1 MCV      -0.021400
     20 CAU         -2.6350    -1.2600    -0.0070 ca         1 MCV       0.102100
     21 HAA         -7.6140     2.3290     0.3600 h1         1 MCV       0.039367
     22 HAAA        -7.2310     1.0590    -0.8210 h1         1 MCV       0.039367
     23 HAAB        -7.3960     0.6540     0.9090 h1         1 MCV       0.039367
     24 HAB         -0.9060    -4.1110    -0.5290 h1         1 MCV       0.040700
     25 HABA        -2.4960    -4.0430     0.2590 h1         1 MCV       0.040700
     26 HABB        -2.3330    -3.6280    -1.4690 h1         1 MCV       0.040700
     27 HNAC         5.8490    -2.6320     0.8190 hn         1 MCV       0.487500
     28 HNAA         6.6840    -1.1150     0.8780 hn         1 MCV       0.487500
     29 HNAD         1.5780    -2.9680    -0.0010 hn         1 MCV       0.503500
     30 HNAB         0.5140    -1.6280    -0.2390 hn         1 MCV       0.503500
     31 HAE         -6.0330    -0.9540    -0.2570 ha         1 MCV       0.118000
     32 HAF         -4.2700    -2.6280    -0.4850 ha         1 MCV       0.116000
     33 HAG          1.0970     3.3370    -0.7300 h4         1 MCV       0.215000
     34 HAH         -3.0930     2.0560     0.7250 ha         1 MCV       0.131000
     35 HAI         -0.3360    -0.2640     1.1660 hc         1 MCV       0.054700
     36 HAIA        -0.8220     1.4120     1.1640 hc         1 MCV       0.054700
     37 HAJ         -0.1560    -0.1610    -1.3900 hc         1 MCV       0.053700
     38 HAJA        -0.6220     1.5160    -1.3130 hc         1 MCV       0.053700
     39 CAJ         -0.1010     0.7290    -0.7540 c3         1 MCV      -0.020200
     40 OAM         -5.6330     1.6660     0.3940 os         1 MCV      -0.340100
     41 OAN         -1.6110    -2.1820    -0.1320 os         1 MCV      -0.365100
@<TRIPOS>BOND
     1     1     2 ar  
     2     1     6 ar  
     3     2     3 ar  
     4     2     9 1   
     5     3     4 ar  
     6     4     5 ar  
     7     4    16 1   
     8     5     6 ar  
     9     5    19 1   
    10     6    10 1   
    11     7    21 1   
    12     7    22 1   
    13     7    23 1   
    14     7    40 1   
    15     8    24 1   
    16     8    25 1   
    17     8    26 1   
    18     8    41 1   
    19     9    27 1   
    20     9    28 1   
    21    10    29 1   
    22    10    30 1   
    23    11    12 ar  
    24    11    17 ar  
    25    11    31 1   
    26    12    20 ar  
    27    12    32 1   
    28    13    16 1   
    29    13    19 2   
    30    13    33 1   
    31    14    17 ar  
    32    14    18 ar  
    33    14    34 1   
    34    15    18 1   
    35    15    35 1   
    36    15    36 1   
    37    15    39 1   
    38    17    40 1   
    39    18    20 ar  
    40    19    39 1   
    41    20    41 1   
    42    37    39 1   
    43    38    39 1   
@<TRIPOS>SUBSTRUCTURE
     1 MCV         1 TEMP              0 ****  ****    0 ROOT
