@<TRIPOS>MOLECULE
MCW
   16    16     1     0     0
SMALL
abcg2


@<TRIPOS>ATOM
      1 C7           2.5080     1.7000    -0.0080 c3         1 MCW       0.137900
      2 O3           2.0130     0.3670    -0.0010 os         1 MCW      -0.299100
      3 C6           0.7080     0.1900    -0.0120 cc         1 MCW       0.086900
      4 C5          -0.2420     1.1440    -0.0310 cd         1 MCW      -0.403200
      5 C3          -1.6580     0.7920    -0.0390 c          1 MCW       0.568500
      6 O1          -2.5300     1.6410    -0.0560 o          1 MCW      -0.506100
      7 C1          -2.0220    -0.6460    -0.0260 cc         1 MCW      -0.220200
      8 C2          -1.0930    -1.5990    -0.0080 cd         1 MCW      -0.248200
      9 C4           0.3410    -1.2660    -0.0010 c          1 MCW       0.556500
     10 O2           1.2000    -2.1170     0.0110 o          1 MCW      -0.458100
     11 H7           3.5910     1.6270    -0.0010 h1         1 MCW       0.051700
     12 H7A          2.1860     2.2340    -0.9040 h1         1 MCW       0.051700
     13 H7B          2.1740     2.2470     0.8760 h1         1 MCW       0.051700
     14 H5          -0.0080     2.2000    -0.0410 ha         1 MCW       0.210000
     15 H1          -3.0780    -0.8840    -0.0330 ha         1 MCW       0.208000
     16 H2          -1.3480    -2.6510     0.0020 ha         1 MCW       0.211000
@<TRIPOS>BOND
     1     1     2 1   
     2     1    11 1   
     3     1    12 1   
     4     1    13 1   
     5     2     3 1   
     6     3     4 2   
     7     3     9 1   
     8     4     5 1   
     9     4    14 1   
    10     5     6 2   
    11     5     7 1   
    12     7     8 2   
    13     7    15 1   
    14     8     9 1   
    15     8    16 1   
    16     9    10 2   
@<TRIPOS>SUBSTRUCTURE
     1 MCW         1 TEMP              0 ****  ****    0 ROOT
