@<TRIPOS>MOLECULE
MCW
   16    16     1     0     0
SMALL
No Charge or Current Charge


@<TRIPOS>ATOM
      1 C7           2.5250     1.7850    -0.0100 c3         1 MCW       0.137900
      2 O3           2.0630     0.4190    -0.0010 os         1 MCW      -0.299100
      3 C6           0.7260     0.0570    -0.0100 cc         1 MCW       0.086900
      4 C5          -0.2130     1.0850    -0.0280 cd         1 MCW      -0.403200
      5 C3          -1.6600     0.8040    -0.0380 c          1 MCW       0.568500
      6 O1          -2.4830     1.7050    -0.0540 o          1 MCW      -0.506100
      7 C1          -2.0500    -0.6190    -0.0280 cc         1 MCW      -0.220200
      8 C2          -1.1200    -1.6490    -0.0100 cd         1 MCW      -0.248200
      9 C4           0.3370    -1.3890     0.0010 c          1 MCW       0.556500
     10 O2           1.1480    -2.3080     0.0170 o          1 MCW      -0.458100
     11 H7           3.6220     1.8120    -0.0010 h1         1 MCW       0.051700
     12 H7A          2.1830     2.3090    -0.9120 h1         1 MCW       0.051700
     13 H7B          2.1680     2.3260     0.8750 h1         1 MCW       0.051700
     14 H5           0.0190     2.1420    -0.0360 ha         1 MCW       0.210000
     15 H1          -3.1190    -0.8060    -0.0350 ha         1 MCW       0.208000
     16 H2          -1.4030    -2.6960    -0.0020 ha         1 MCW       0.211000
@<TRIPOS>BOND
     1     1     2 1   
     2     1    11 1   
     3     1    12 1   
     4     1    13 1   
     5     2     3 1   
     6     3     4 2   
     7     3     9 1   
     8     4     5 1   
     9     4    14 1   
    10     5     6 2   
    11     5     7 1   
    12     7     8 2   
    13     7    15 1   
    14     8     9 1   
    15     8    16 1   
    16     9    10 2   
@<TRIPOS>SUBSTRUCTURE
     1 MCW         1 TEMP              0 ****  ****    0 ROOT
