@<TRIPOS>MOLECULE
MCX
   91    94     1     0     0
SMALL
No Charge or Current Charge


@<TRIPOS>ATOM
      1 C1           4.1940    -0.3570    -0.7340 c          1 MCX       0.637100
      2 O2           4.6280     0.6670    -1.2330 o          1 MCX      -0.655100
      3 N3           4.9430    -1.2600    -0.0250 ns         1 MCX      -0.515900
      4 C4           6.3970    -1.2360     0.2240 c6         1 MCX       0.153400
      5 C5           7.1820    -1.1190    -1.1160 c3         1 MCX      -0.108100
      6 C6           6.7880    -2.5780     0.9200 c6         1 MCX      -0.084900
      7 C7           6.1410    -2.7460     2.3220 c6         1 MCX      -0.071400
      8 C8           6.4910    -1.5550     3.2460 c6         1 MCX      -0.073400
      9 C9           6.1120    -0.2070     2.5870 c6         1 MCX      -0.071400
     10 C10          6.7710    -0.0670     1.1880 c6         1 MCX      -0.084900
     11 N11          2.8780    -0.7300    -0.8040 ns         1 MCX      -0.478900
     12 C12          1.8110     0.0290    -1.5010 c3         1 MCX       0.042700
     13 C13          1.4860    -0.5840    -2.9200 c3         1 MCX      -0.037000
     14 C14          0.8530    -1.9970    -2.7820 c3         1 MCX      -0.088767
     15 C15          0.5030     0.3210    -3.7110 c3         1 MCX      -0.088767
     16 C16          2.7860    -0.7090    -3.7670 c3         1 MCX      -0.088767
     17 C17          0.5710     0.1210    -0.5440 c          1 MCX       0.588100
     18 O18          0.3240    -0.7780     0.2550 o          1 MCX      -0.633100
     19 N19         -0.2980     1.2310    -0.6370 n          1 MCX      -0.383800
     20 C20          0.1950     2.5750    -1.0370 c5         1 MCX       0.131000
     21 C21         -1.5710     1.2650     0.1500 c5         1 MCX       0.058700
     22 C22         -1.9790     2.7520     0.1200 cx         1 MCX      -0.135700
     23 C23         -0.9110     3.5390    -0.5880 cx         1 MCX      -0.128700
     24 C24         -1.1130     3.7230     0.9090 cx         1 MCX      -0.077000
     25 C25         -1.7580     5.0230     1.3880 c3         1 MCX      -0.066100
     26 C26         -0.0770     3.2560     1.9470 c3         1 MCX      -0.066100
     27 C27         -2.6820     0.3370    -0.4350 c          1 MCX       0.611100
     28 O28         -2.6830    -0.2500    -1.5110 o          1 MCX      -0.609100
     29 N29         -3.7400     0.2900     0.4510 ns         1 MCX      -0.490900
     30 C30         -4.9950    -0.4380     0.2310 c3         1 MCX       0.089700
     31 C31         -5.2610    -1.4490     1.3780 c3         1 MCX      -0.077400
     32 C32         -4.2440    -2.6070     1.4470 cy         1 MCX      -0.081700
     33 C33         -4.3590    -3.6150     2.6410 cy         1 MCX      -0.088900
     34 C34         -2.7970    -2.3330     1.9860 cy         1 MCX      -0.088900
     35 C35         -2.8180    -3.8190     2.4700 cy         1 MCX      -0.091400
     36 O36         -6.3710     1.3940     1.1700 oh         1 MCX      -0.626000
     37 C37         -6.1740     0.5530    -0.0010 c3         1 MCX       0.066300
     38 C40         -5.9700     1.3770    -1.3180 c          1 MCX       0.616100
     39 N39         -6.1050     0.6930    -2.4800 nt         1 MCX      -0.604000
     40 H1           4.4370    -2.0540     0.3410 hn         1 MCX       0.308500
     41 H2           7.0340    -0.1480    -1.6000 hc         1 MCX       0.045367
     42 H3           8.2610    -1.2290    -0.9540 hc         1 MCX       0.045367
     43 H4           6.8750    -1.8960    -1.8260 hc         1 MCX       0.045367
     44 H5           6.5050    -3.4270     0.2830 hc         1 MCX       0.049700
     45 H6           7.8800    -2.6330     1.0260 hc         1 MCX       0.049700
     46 H7           5.0500    -2.8380     2.2320 hc         1 MCX       0.040950
     47 H8           6.4900    -3.6820     2.7800 hc         1 MCX       0.040950
     48 H9           5.9700    -1.6610     4.2070 hc         1 MCX       0.037200
     49 H10          7.5660    -1.5660     3.4700 hc         1 MCX       0.037200
     50 H11          5.0200    -0.1270     2.5000 hc         1 MCX       0.040950
     51 H12          6.4320     0.6230     3.2320 hc         1 MCX       0.040950
     52 H13          7.8620    -0.0270     1.3100 hc         1 MCX       0.049700
     53 H14          6.4840     0.8970     0.7460 hc         1 MCX       0.049700
     54 H15          2.6090    -1.5740    -0.3170 hn         1 MCX       0.300500
     55 H16          2.1790     1.0500    -1.6540 h1         1 MCX       0.088700
     56 H17         -0.1100    -1.9540    -2.2590 hc         1 MCX       0.039700
     57 H18          0.6710    -2.4410    -3.7690 hc         1 MCX       0.039700
     58 H19          1.5120    -2.6770    -2.2280 hc         1 MCX       0.039700
     59 H20         -0.4600     0.4200    -3.1980 hc         1 MCX       0.039700
     60 H21          0.9240     1.3220    -3.8600 hc         1 MCX       0.039700
     61 H22          0.2980    -0.1000    -4.7030 hc         1 MCX       0.039700
     62 H23          2.5620    -1.0570    -4.7820 hc         1 MCX       0.039700
     63 H24          3.2930     0.2600    -3.8500 hc         1 MCX       0.039700
     64 H25          3.4890    -1.4250    -3.3250 hc         1 MCX       0.039700
     65 H26          1.1600     2.8070    -0.5670 h1         1 MCX       0.063700
     66 H27          0.3420     2.6280    -2.1220 h1         1 MCX       0.063700
     67 H28         -1.3940     0.9220     1.1780 h1         1 MCX       0.081700
     68 H29         -3.0200     3.0220    -0.0500 hc         1 MCX       0.124700
     69 H30         -1.2080     4.3510    -1.2480 hc         1 MCX       0.099700
     70 H31         -2.2650     4.8810     2.3500 hc         1 MCX       0.041533
     71 H32         -1.0070     5.8120     1.5140 hc         1 MCX       0.041533
     72 H33         -2.5050     5.3910     0.6730 hc         1 MCX       0.041533
     73 H34          0.4430     2.3330     1.6740 hc         1 MCX       0.041533
     74 H35          0.6930     4.0220     2.0950 hc         1 MCX       0.041533
     75 H36         -0.5570     3.0780     2.9170 hc         1 MCX       0.041533
     76 H37         -3.6540     0.8430     1.2950 hn         1 MCX       0.323500
     77 H38         -4.8940    -1.0330    -0.6870 h1         1 MCX       0.082700
     78 H39         -5.2820    -0.9190     2.3380 hc         1 MCX       0.041700
     79 H40         -6.2620    -1.8770     1.2400 hc         1 MCX       0.041700
     80 H41         -4.2460    -3.1090     0.4700 hc         1 MCX       0.061700
     81 H42         -4.6540    -3.1640     3.5960 hc         1 MCX       0.051700
     82 H43         -4.9820    -4.4980     2.4650 hc         1 MCX       0.051700
     83 H44         -2.0410    -2.0890     1.2320 hc         1 MCX       0.051700
     84 H45         -2.7380    -1.5910     2.7920 hc         1 MCX       0.051700
     85 H46         -2.2570    -4.0350     3.3860 hc         1 MCX       0.049200
     86 H47         -2.5360    -4.5530     1.7050 hc         1 MCX       0.049200
     87 H48         -6.6570     0.8140     1.9090 ho         1 MCX       0.442000
     88 H49         -7.0800    -0.0460    -0.1660 h1         1 MCX       0.037700
     89 H50         -5.9850     1.1820    -3.3540 hn         1 MCX       0.315000
     90 H51         -6.3250    -0.2920    -2.4710 hn         1 MCX       0.315000
     91 O38         -5.7180     2.5730    -1.3530 o          1 MCX      -0.580100
@<TRIPOS>BOND
     1     1     2 2   
     2     1     3 1   
     3     1    11 1   
     4     3     4 1   
     5     3    40 1   
     6     4     5 1   
     7     4     6 1   
     8     4    10 1   
     9     5    41 1   
    10     5    42 1   
    11     5    43 1   
    12     6     7 1   
    13     6    44 1   
    14     6    45 1   
    15     7     8 1   
    16     7    46 1   
    17     7    47 1   
    18     8     9 1   
    19     8    48 1   
    20     8    49 1   
    21     9    10 1   
    22     9    50 1   
    23     9    51 1   
    24    10    52 1   
    25    10    53 1   
    26    11    12 1   
    27    11    54 1   
    28    12    13 1   
    29    12    17 1   
    30    12    55 1   
    31    13    14 1   
    32    13    15 1   
    33    13    16 1   
    34    14    56 1   
    35    14    57 1   
    36    14    58 1   
    37    15    59 1   
    38    15    60 1   
    39    15    61 1   
    40    16    62 1   
    41    16    63 1   
    42    16    64 1   
    43    17    18 2   
    44    17    19 1   
    45    19    20 1   
    46    19    21 1   
    47    20    23 1   
    48    20    65 1   
    49    20    66 1   
    50    21    22 1   
    51    21    27 1   
    52    21    67 1   
    53    22    23 1   
    54    22    24 1   
    55    22    68 1   
    56    23    24 1   
    57    23    69 1   
    58    24    25 1   
    59    24    26 1   
    60    25    70 1   
    61    25    71 1   
    62    25    72 1   
    63    26    73 1   
    64    26    74 1   
    65    26    75 1   
    66    27    28 2   
    67    27    29 1   
    68    29    30 1   
    69    29    76 1   
    70    30    31 1   
    71    30    37 1   
    72    30    77 1   
    73    31    32 1   
    74    31    78 1   
    75    31    79 1   
    76    32    33 1   
    77    32    34 1   
    78    32    80 1   
    79    33    35 1   
    80    33    81 1   
    81    33    82 1   
    82    34    35 1   
    83    34    83 1   
    84    34    84 1   
    85    35    85 1   
    86    35    86 1   
    87    36    37 1   
    88    36    87 1   
    89    37    38 1   
    90    37    88 1   
    91    38    39 1   
    92    38    91 2   
    93    39    89 1   
    94    39    90 1   
@<TRIPOS>SUBSTRUCTURE
     1 MCX         1 TEMP              0 ****  ****    0 ROOT
