@<TRIPOS>MOLECULE
MCX
   91    94     1     0     0
SMALL
abcg2


@<TRIPOS>ATOM
      1 C1           3.6470    -0.2090    -0.9180 c          1 MCX       0.637100
      2 O2           3.5830     1.0140    -0.8670 o          1 MCX      -0.655100
      3 N3           4.4930    -0.9540    -0.1710 ns         1 MCX      -0.515900
      4 C4           5.4580    -0.4330     0.7990 c6         1 MCX       0.153400
      5 C5           6.5400     0.3950     0.1060 c3         1 MCX      -0.108100
      6 C6           6.1060    -1.6570     1.4630 c6         1 MCX      -0.084900
      7 C7           5.1290    -2.4990     2.2770 c6         1 MCX      -0.071400
      8 C8           4.4010    -1.6570     3.3190 c6         1 MCX      -0.073400
      9 C9           3.7520    -0.4260     2.6960 c6         1 MCX      -0.071400
     10 C10          4.7550     0.3900     1.8900 c6         1 MCX      -0.084900
     11 N11          2.8530    -0.9380    -1.7750 ns         1 MCX      -0.478900
     12 C12          1.6740    -0.3060    -2.3240 c3         1 MCX       0.042700
     13 C13          1.1480    -1.0620    -3.5720 c3         1 MCX      -0.037000
     14 C14          0.7540    -2.5120    -3.2840 c3         1 MCX      -0.088767
     15 C15         -0.0690    -0.3170    -4.1260 c3         1 MCX      -0.088767
     16 C16          2.2510    -1.0530    -4.6340 c3         1 MCX      -0.088767
     17 C17          0.6270    -0.1800    -1.2110 c          1 MCX       0.588100
     18 O18          0.3500    -1.1550    -0.5220 o          1 MCX      -0.633100
     19 N19          0.0590     1.0170    -0.9860 n          1 MCX      -0.383800
     20 C20          0.3660     2.2780    -1.6580 c5         1 MCX       0.131000
     21 C21         -0.9390     1.1370     0.0560 c5         1 MCX       0.058700
     22 C22         -1.1770     2.6270     0.1950 cx         1 MCX      -0.135700
     23 C23         -0.3640     3.3250    -0.8560 cx         1 MCX      -0.128700
     24 C24         -0.0250     3.5030     0.5980 cx         1 MCX      -0.077000
     25 C25         -0.4160     4.8340     1.2000 c3         1 MCX      -0.066100
     26 C26          1.2410     2.9320     1.1920 c3         1 MCX      -0.066100
     27 C27         -2.2400     0.4360    -0.3330 c          1 MCX       0.611100
     28 O28         -2.5370     0.2050    -1.4920 o          1 MCX      -0.609100
     29 N29         -3.0260     0.1450     0.7160 ns         1 MCX      -0.490900
     30 C30         -4.3390    -0.4500     0.6100 c3         1 MCX       0.089700
     31 C31         -4.5200    -1.5380     1.6650 c3         1 MCX      -0.077400
     32 C32         -3.5000    -2.6570     1.5740 cy         1 MCX      -0.081700
     33 C33         -3.6470    -3.8350     2.5590 cy         1 MCX      -0.088900
     34 C34         -2.0660    -2.4530     2.1080 cy         1 MCX      -0.088900
     35 C35         -2.1120    -3.8850     2.6730 cy         1 MCX      -0.091400
     36 O36         -5.3730     1.3240     1.9240 oh         1 MCX      -0.626000
     37 C37         -5.4440     0.6210     0.7140 c3         1 MCX       0.066300
     38 C40         -5.3010     1.6350    -0.4150 c          1 MCX       0.616100
     39 N39         -5.8500     1.2530    -1.5770 nt         1 MCX      -0.604000
     40 H1           4.5840    -1.9290    -0.4120 hn         1 MCX       0.308500
     41 H2           6.1210     1.2820    -0.3680 hc         1 MCX       0.045367
     42 H3           7.2910     0.7200     0.8270 hc         1 MCX       0.045367
     43 H4           7.0450    -0.1970    -0.6600 hc         1 MCX       0.045367
     44 H5           6.5980    -2.2710     0.7010 hc         1 MCX       0.049700
     45 H6           6.9030    -1.2920     2.1180 hc         1 MCX       0.049700
     46 H7           4.4000    -2.9790     1.6170 hc         1 MCX       0.040950
     47 H8           5.6730    -3.3120     2.7630 hc         1 MCX       0.040950
     48 H9           3.6520    -2.2630     3.8350 hc         1 MCX       0.037200
     49 H10          5.1180    -1.3370     4.0830 hc         1 MCX       0.037200
     50 H11          2.9160    -0.7280     2.0570 hc         1 MCX       0.040950
     51 H12          3.3210     0.2020     3.4800 hc         1 MCX       0.040950
     52 H13          5.5330     0.7680     2.5630 hc         1 MCX       0.049700
     53 H14          4.2710     1.2640     1.4560 hc         1 MCX       0.049700
     54 H15          2.7360    -1.9130    -1.5420 hn         1 MCX       0.300500
     55 H16          1.9710     0.6810    -2.6760 h1         1 MCX       0.088700
     56 H17         -0.0690    -2.5900    -2.5770 hc         1 MCX       0.039700
     57 H18          0.4380    -2.9900    -4.2140 hc         1 MCX       0.039700
     58 H19          1.5890    -3.1040    -2.9010 hc         1 MCX       0.039700
     59 H20         -0.8910    -0.2720    -3.4110 hc         1 MCX       0.039700
     60 H21          0.1870     0.7070    -4.4070 hc         1 MCX       0.039700
     61 H22         -0.4330    -0.8200    -5.0230 hc         1 MCX       0.039700
     62 H23          1.8900    -1.5220    -5.5510 hc         1 MCX       0.039700
     63 H24          2.5570    -0.0340    -4.8830 hc         1 MCX       0.039700
     64 H25          3.1360    -1.5980    -4.3070 hc         1 MCX       0.039700
     65 H26          1.4450     2.4430    -1.6750 h1         1 MCX       0.063700
     66 H27          0.0030     2.2830    -2.6880 h1         1 MCX       0.063700
     67 H28         -0.5640     0.6970     0.9880 h1         1 MCX       0.081700
     68 H29         -2.1830     2.9480     0.4350 hc         1 MCX       0.124700
     69 H30         -0.7680     4.1690    -1.4030 hc         1 MCX       0.099700
     70 H31         -0.6010     4.7370     2.2720 hc         1 MCX       0.041533
     71 H32          0.3780     5.5700     1.0650 hc         1 MCX       0.041533
     72 H33         -1.3220     5.2370     0.7450 hc         1 MCX       0.041533
     73 H34          1.5770     2.0140     0.7150 hc         1 MCX       0.041533
     74 H35          2.0550     3.6540     1.1010 hc         1 MCX       0.041533
     75 H36          1.1040     2.7250     2.2550 hc         1 MCX       0.041533
     76 H37         -2.7190     0.4180     1.6360 hn         1 MCX       0.323500
     77 H38         -4.4070    -0.9120    -0.3770 h1         1 MCX       0.082700
     78 H39         -4.4880    -1.1020     2.6700 hc         1 MCX       0.041700
     79 H40         -5.5230    -1.9590     1.5430 hc         1 MCX       0.041700
     80 H41         -3.4590    -3.0360     0.5470 hc         1 MCX       0.061700
     81 H42         -4.1100    -3.5100     3.4950 hc         1 MCX       0.051700
     82 H43         -4.1680    -4.7270     2.2090 hc         1 MCX       0.051700
     83 H44         -1.2880    -2.2120     1.3830 hc         1 MCX       0.051700
     84 H45         -2.0370    -1.7080     2.9080 hc         1 MCX       0.051700
     85 H46         -1.6870    -4.0550     3.6630 hc         1 MCX       0.049200
     86 H47         -1.6750    -4.6090     1.9840 hc         1 MCX       0.049200
     87 H48         -5.8490     0.8240     2.5930 ho         1 MCX       0.442000
     88 H49         -6.4070     0.1030     0.6060 h1         1 MCX       0.037700
     89 H50         -5.6970     1.7990    -2.4090 hn         1 MCX       0.315000
     90 H51         -6.3170     0.3700    -1.6850 hn         1 MCX       0.315000
     91 O38         -4.7190     2.6950    -0.2610 o          1 MCX      -0.580100
@<TRIPOS>BOND
     1     1     2 2   
     2     1     3 1   
     3     1    11 1   
     4     3     4 1   
     5     3    40 1   
     6     4     5 1   
     7     4     6 1   
     8     4    10 1   
     9     5    41 1   
    10     5    42 1   
    11     5    43 1   
    12     6     7 1   
    13     6    44 1   
    14     6    45 1   
    15     7     8 1   
    16     7    46 1   
    17     7    47 1   
    18     8     9 1   
    19     8    48 1   
    20     8    49 1   
    21     9    10 1   
    22     9    50 1   
    23     9    51 1   
    24    10    52 1   
    25    10    53 1   
    26    11    12 1   
    27    11    54 1   
    28    12    13 1   
    29    12    17 1   
    30    12    55 1   
    31    13    14 1   
    32    13    15 1   
    33    13    16 1   
    34    14    56 1   
    35    14    57 1   
    36    14    58 1   
    37    15    59 1   
    38    15    60 1   
    39    15    61 1   
    40    16    62 1   
    41    16    63 1   
    42    16    64 1   
    43    17    18 2   
    44    17    19 1   
    45    19    20 1   
    46    19    21 1   
    47    20    23 1   
    48    20    65 1   
    49    20    66 1   
    50    21    22 1   
    51    21    27 1   
    52    21    67 1   
    53    22    23 1   
    54    22    24 1   
    55    22    68 1   
    56    23    24 1   
    57    23    69 1   
    58    24    25 1   
    59    24    26 1   
    60    25    70 1   
    61    25    71 1   
    62    25    72 1   
    63    26    73 1   
    64    26    74 1   
    65    26    75 1   
    66    27    28 2   
    67    27    29 1   
    68    29    30 1   
    69    29    76 1   
    70    30    31 1   
    71    30    37 1   
    72    30    77 1   
    73    31    32 1   
    74    31    78 1   
    75    31    79 1   
    76    32    33 1   
    77    32    34 1   
    78    32    80 1   
    79    33    35 1   
    80    33    81 1   
    81    33    82 1   
    82    34    35 1   
    83    34    83 1   
    84    34    84 1   
    85    35    85 1   
    86    35    86 1   
    87    36    37 1   
    88    36    87 1   
    89    37    38 1   
    90    37    88 1   
    91    38    39 1   
    92    38    91 2   
    93    39    89 1   
    94    39    90 1   
@<TRIPOS>SUBSTRUCTURE
     1 MCX         1 TEMP              0 ****  ****    0 ROOT
