@<TRIPOS>MOLECULE
MCZ
   72    74     1     0     0
SMALL
No Charge or Current Charge


@<TRIPOS>ATOM
      1 C1           5.6790     2.4160    -0.6980 c6         1 MCZ       0.211500
      2 O1           4.9220     2.8680     0.4260 oh         1 MCZ      -0.656000
      3 C2           7.1360     2.0930    -0.2860 c6         1 MCZ      -0.065400
      4 C3           7.2190     0.8270     0.6000 c6         1 MCZ       0.175300
      5 O3           8.5890     0.5300     0.8990 oh         1 MCZ      -0.661000
      6 C4           6.5560    -0.3800    -0.1090 c6         1 MCZ      -0.073200
      7 C5           5.1120    -0.0560    -0.5120 ce         1 MCZ      -0.066200
      8 C6           4.0870    -0.9000    -0.1920 cf         1 MCZ      -0.162000
      9 C7           2.6710    -0.6880    -0.5050 cf         1 MCZ      -0.191000
     10 C8           1.6450    -1.5740    -0.3570 c2         1 MCZ      -0.078400
     11 C9           1.8170    -3.0220     0.1260 c6         1 MCZ      -0.042200
     12 C10          4.9910     1.1840    -1.3040 ce         1 MCZ      -0.125200
     13 C11          0.8320    -3.3830     1.2690 c6         1 MCZ      -0.071400
     14 C12         -0.6310    -2.9700     0.9440 c6         1 MCZ      -0.063400
     15 C13         -0.7350    -1.4680     0.5200 c5         1 MCZ      -0.035000
     16 C14          0.1860    -1.2530    -0.7290 c5         1 MCZ      -0.036500
     17 C15         -0.1370     0.2130    -1.1260 c5         1 MCZ      -0.073400
     18 C16         -1.6880     0.2740    -0.9420 c5         1 MCZ      -0.067400
     19 C17         -2.0890    -1.0420    -0.1690 c5         1 MCZ      -0.058700
     20 C18         -0.3900    -0.5740     1.7620 c3         1 MCZ      -0.081100
     21 C19          4.3640     1.2390    -2.5010 c2         1 MCZ      -0.295000
     22 C20         -3.3590    -0.8530     0.7210 c3         1 MCZ       0.184300
     23 C21         -3.8500    -2.1150     1.4720 c3         1 MCZ      -0.117100
     24 O22         -4.4100    -0.4100    -0.1660 os         1 MCZ      -0.473000
     25 C23         -5.5150     0.2830     0.4450 c3         1 MCZ       0.166600
     26 C24         -6.4350     0.7710    -0.6960 c3         1 MCZ      -0.108400
     27 C25         -7.7180     1.5240    -0.2450 c3         1 MCZ       0.185000
     28 C26         -7.3940     2.7870     0.5890 c3         1 MCZ      -0.101100
     29 C27         -8.5730     1.9080    -1.4760 c3         1 MCZ      -0.101100
     30 O28         -8.5020     0.6510     0.5690 oh         1 MCZ      -0.662000
     31 H1           5.7130     3.2140    -1.4550 h1         1 MCZ       0.036700
     32 HO1          3.9820     2.7650     0.1690 ho         1 MCZ       0.444000
     33 H2           7.7370     1.9440    -1.1930 hc         1 MCZ       0.062200
     34 H2A          7.5750     2.9520     0.2380 hc         1 MCZ       0.062200
     35 H3           6.6700     1.0220     1.5340 h1         1 MCZ       0.049700
     36 HO3          8.5840    -0.2310     1.5200 ho         1 MCZ       0.441000
     37 H4           7.1290    -0.6470    -1.0080 hc         1 MCZ       0.051700
     38 H4A          6.5870    -1.2580     0.5500 hc         1 MCZ       0.051700
     39 H6           4.3500    -1.7930     0.3720 ha         1 MCZ       0.169000
     40 H7           2.4450     0.3010    -0.8980 ha         1 MCZ       0.174000
     41 H9           1.6330    -3.6930    -0.7240 hc         1 MCZ       0.046200
     42 H9A          2.8360    -3.2450     0.4570 hc         1 MCZ       0.046200
     43 H11          0.8740    -4.4640     1.4610 hc         1 MCZ       0.041200
     44 H11A         1.1610    -2.9030     2.2000 hc         1 MCZ       0.041200
     45 H12         -1.0130    -3.6090     0.1360 hc         1 MCZ       0.041700
     46 H12A        -1.2540    -3.1810     1.8200 hc         1 MCZ       0.041700
     47 H14         -0.1070    -1.9210    -1.5500 hc         1 MCZ       0.054700
     48 H15          0.3530     0.9460    -0.4750 hc         1 MCZ       0.042700
     49 H15A         0.1690     0.4400    -2.1530 hc         1 MCZ       0.042700
     50 H16         -1.9710     1.1760    -0.3870 hc         1 MCZ       0.045700
     51 H16A        -2.2040     0.3310    -1.9070 hc         1 MCZ       0.045700
     52 H17         -2.3710    -1.8080    -0.9030 hc         1 MCZ       0.057700
     53 H18          0.6670    -0.6460     2.0440 hc         1 MCZ       0.035033
     54 H18A        -0.6000     0.4880     1.5940 hc         1 MCZ       0.035033
     55 H18B        -0.9810    -0.8720     2.6360 hc         1 MCZ       0.035033
     56 H19          4.3020     2.1620    -3.0790 ha         1 MCZ       0.168500
     57 H19A         3.9010     0.3570    -2.9430 ha         1 MCZ       0.168500
     58 H20         -3.1450    -0.0700     1.4600 h1         1 MCZ       0.033700
     59 H21         -3.1990    -2.3270     2.3260 hc         1 MCZ       0.040367
     60 H21A        -4.8580    -1.9860     1.8800 hc         1 MCZ       0.040367
     61 H21B        -3.8580    -2.9870     0.8090 hc         1 MCZ       0.040367
     62 H23         -6.0810    -0.3760     1.1150 h1         1 MCZ       0.026200
     63 H23A        -5.1520     1.1420     1.0240 h1         1 MCZ       0.026200
     64 H24         -5.8510     1.4280    -1.3520 hc         1 MCZ       0.053200
     65 H24A        -6.7220    -0.0970    -1.3030 hc         1 MCZ       0.053200
     66 H26         -6.7380     3.4650     0.0290 hc         1 MCZ       0.042367
     67 H26A        -8.3110     3.3340     0.8400 hc         1 MCZ       0.042367
     68 H26B        -6.8960     2.5290     1.5310 hc         1 MCZ       0.042367
     69 H27         -8.8350     1.0220    -2.0670 hc         1 MCZ       0.042367
     70 H27A        -9.5040     2.3990    -1.1700 hc         1 MCZ       0.042367
     71 H27B        -8.0240     2.5990    -2.1270 hc         1 MCZ       0.042367
     72 HO28        -8.8020    -0.0840    -0.0070 ho         1 MCZ       0.440000
@<TRIPOS>BOND
     1     1     2 1   
     2     1     3 1   
     3     1    12 1   
     4     1    31 1   
     5     2    32 1   
     6     3     4 1   
     7     3    33 1   
     8     3    34 1   
     9     4     5 1   
    10     4     6 1   
    11     4    35 1   
    12     5    36 1   
    13     6     7 1   
    14     6    37 1   
    15     6    38 1   
    16     7     8 2   
    17     7    12 1   
    18     8     9 1   
    19     8    39 1   
    20     9    10 2   
    21     9    40 1   
    22    10    11 1   
    23    10    16 1   
    24    11    13 1   
    25    11    41 1   
    26    11    42 1   
    27    12    21 2   
    28    13    14 1   
    29    13    43 1   
    30    13    44 1   
    31    14    15 1   
    32    14    45 1   
    33    14    46 1   
    34    15    16 1   
    35    15    19 1   
    36    15    20 1   
    37    16    17 1   
    38    16    47 1   
    39    17    18 1   
    40    17    48 1   
    41    17    49 1   
    42    18    19 1   
    43    18    50 1   
    44    18    51 1   
    45    19    22 1   
    46    19    52 1   
    47    20    53 1   
    48    20    54 1   
    49    20    55 1   
    50    21    56 1   
    51    21    57 1   
    52    22    23 1   
    53    22    24 1   
    54    22    58 1   
    55    23    59 1   
    56    23    60 1   
    57    23    61 1   
    58    24    25 1   
    59    25    26 1   
    60    25    62 1   
    61    25    63 1   
    62    26    27 1   
    63    26    64 1   
    64    26    65 1   
    65    27    28 1   
    66    27    29 1   
    67    27    30 1   
    68    28    66 1   
    69    28    67 1   
    70    28    68 1   
    71    29    69 1   
    72    29    70 1   
    73    29    71 1   
    74    30    72 1   
@<TRIPOS>SUBSTRUCTURE
     1 MCZ         1 TEMP              0 ****  ****    0 ROOT
