@<TRIPOS>MOLECULE
MCZ
   72    74     1     0     0
SMALL
abcg2


@<TRIPOS>ATOM
      1 C1           5.3250     2.4180    -0.3190 c6         1 MCZ       0.211500
      2 O1           4.5350     2.5600     0.8460 oh         1 MCZ      -0.656000
      3 C2           6.7560     2.1470     0.1240 c6         1 MCZ      -0.065400
      4 C3           6.8970     0.7960     0.8120 c6         1 MCZ       0.175300
      5 O3           8.2610     0.6270     1.1410 oh         1 MCZ      -0.661000
      6 C4           6.3960    -0.3180    -0.1120 c6         1 MCZ      -0.073200
      7 C5           4.9860    -0.0550    -0.5680 ce         1 MCZ      -0.066200
      8 C6           4.0050    -0.9550    -0.3810 cf         1 MCZ      -0.162000
      9 C7           2.6030    -0.7780    -0.7020 cf         1 MCZ      -0.191000
     10 C8           1.6290    -1.6880    -0.5390 c2         1 MCZ      -0.078400
     11 C9           1.8050    -3.0840    -0.0070 c6         1 MCZ      -0.042200
     12 C10          4.8060     1.2800    -1.1690 ce         1 MCZ      -0.125200
     13 C11          0.8560    -3.3680     1.1650 c6         1 MCZ      -0.071400
     14 C12         -0.5970    -3.0050     0.8580 c6         1 MCZ      -0.063400
     15 C13         -0.7290    -1.5640     0.3590 c5         1 MCZ      -0.035000
     16 C14          0.1970    -1.4110    -0.8730 c5         1 MCZ      -0.036500
     17 C15         -0.2250    -0.0910    -1.5000 c5         1 MCZ      -0.073400
     18 C16         -1.7490    -0.0500    -1.2700 c5         1 MCZ      -0.067400
     19 C17         -2.0870    -1.1940    -0.2790 c5         1 MCZ      -0.058700
     20 C18         -0.3470    -0.5660     1.4550 c3         1 MCZ      -0.081100
     21 C19          4.2700     1.4980    -2.3690 c2         1 MCZ      -0.295000
     22 C20         -3.2300    -0.8070     0.6540 c3         1 MCZ       0.184300
     23 C21         -3.6320    -1.8920     1.6440 c3         1 MCZ      -0.117100
     24 O22         -4.3290    -0.4760    -0.1820 os         1 MCZ      -0.473000
     25 C23         -5.2190     0.4630     0.3730 c3         1 MCZ       0.166600
     26 C24         -6.3620     0.6780    -0.6020 c3         1 MCZ      -0.108400
     27 C25         -7.4730     1.6080    -0.0940 c3         1 MCZ       0.185000
     28 C26         -6.9390     2.9930     0.2520 c3         1 MCZ      -0.101100
     29 C27         -8.5530     1.7250    -1.1680 c3         1 MCZ      -0.101100
     30 O28         -8.0410     1.0960     1.1070 oh         1 MCZ      -0.662000
     31 H1           5.3080     3.3410    -0.9150 h1         1 MCZ       0.036700
     32 HO1          3.6170     2.6650     0.5750 ho         1 MCZ       0.444000
     33 H2           7.3980     2.1660    -0.7620 hc         1 MCZ       0.062200
     34 H2A          7.0950     2.9500     0.7840 hc         1 MCZ       0.062200
     35 H3           6.2820     0.7910     1.7210 h1         1 MCZ       0.049700
     36 HO3          8.3440    -0.1760     1.6650 ho         1 MCZ       0.441000
     37 H4           7.0640    -0.3560    -0.9820 hc         1 MCZ       0.051700
     38 H4A          6.4580    -1.2860     0.3920 hc         1 MCZ       0.051700
     39 H6           4.2970    -1.8920     0.0830 ha         1 MCZ       0.169000
     40 H7           2.3210     0.1910    -1.0970 ha         1 MCZ       0.174000
     41 H9           1.5800    -3.7880    -0.8180 hc         1 MCZ       0.046200
     42 H9A          2.8320    -3.2880     0.2970 hc         1 MCZ       0.046200
     43 H11          0.9210    -4.4270     1.4260 hc         1 MCZ       0.041200
     44 H11A         1.2000    -2.8190     2.0450 hc         1 MCZ       0.041200
     45 H12         -0.9820    -3.6770     0.0820 hc         1 MCZ       0.041700
     46 H12A        -1.2060    -3.1820     1.7460 hc         1 MCZ       0.041700
     47 H14         -0.1100    -2.2090    -1.5690 hc         1 MCZ       0.054700
     48 H15          0.2600     0.7540    -1.0070 hc         1 MCZ       0.042700
     49 H15A         0.0430    -0.0320    -2.5560 hc         1 MCZ       0.042700
     50 H16         -2.0510     0.9180    -0.8630 hc         1 MCZ       0.045700
     51 H16A        -2.2980    -0.1730    -2.2030 hc         1 MCZ       0.045700
     52 H17         -2.4190    -2.0710    -0.8510 hc         1 MCZ       0.057700
     53 H18          0.6910    -0.6800     1.7670 hc         1 MCZ       0.035033
     54 H18A        -0.4700     0.4690     1.1330 hc         1 MCZ       0.035033
     55 H18B        -0.9690    -0.7020     2.3430 hc         1 MCZ       0.035033
     56 H19          4.1790     2.5020    -2.7670 ha         1 MCZ       0.168500
     57 H19A         3.9170     0.6890    -2.9960 ha         1 MCZ       0.168500
     58 H20         -2.9300     0.0890     1.2180 h1         1 MCZ       0.033700
     59 H21         -2.8760    -2.0300     2.4160 hc         1 MCZ       0.040367
     60 H21A        -4.5600    -1.6300     2.1550 hc         1 MCZ       0.040367
     61 H21B        -3.7810    -2.8500     1.1430 hc         1 MCZ       0.040367
     62 H23         -5.6140     0.1170     1.3370 h1         1 MCZ       0.026200
     63 H23A        -4.6920     1.4070     0.5670 h1         1 MCZ       0.026200
     64 H24         -5.9670     1.0760    -1.5420 hc         1 MCZ       0.053200
     65 H24A        -6.8060    -0.2960    -0.8440 hc         1 MCZ       0.053200
     66 H26         -6.4220     3.4290    -0.6030 hc         1 MCZ       0.042367
     67 H26A        -7.7560     3.6640     0.5250 hc         1 MCZ       0.042367
     68 H26B        -6.2400     2.9660     1.0890 hc         1 MCZ       0.042367
     69 H27         -8.9520     0.7430    -1.4340 hc         1 MCZ       0.042367
     70 H27A        -9.3810     2.3440    -0.8190 hc         1 MCZ       0.042367
     71 H27B        -8.1590     2.1760    -2.0800 hc         1 MCZ       0.042367
     72 HO28        -8.4130     0.2280     0.9160 ho         1 MCZ       0.440000
@<TRIPOS>BOND
     1     1     2 1   
     2     1     3 1   
     3     1    12 1   
     4     1    31 1   
     5     2    32 1   
     6     3     4 1   
     7     3    33 1   
     8     3    34 1   
     9     4     5 1   
    10     4     6 1   
    11     4    35 1   
    12     5    36 1   
    13     6     7 1   
    14     6    37 1   
    15     6    38 1   
    16     7     8 2   
    17     7    12 1   
    18     8     9 1   
    19     8    39 1   
    20     9    10 2   
    21     9    40 1   
    22    10    11 1   
    23    10    16 1   
    24    11    13 1   
    25    11    41 1   
    26    11    42 1   
    27    12    21 2   
    28    13    14 1   
    29    13    43 1   
    30    13    44 1   
    31    14    15 1   
    32    14    45 1   
    33    14    46 1   
    34    15    16 1   
    35    15    19 1   
    36    15    20 1   
    37    16    17 1   
    38    16    47 1   
    39    17    18 1   
    40    17    48 1   
    41    17    49 1   
    42    18    19 1   
    43    18    50 1   
    44    18    51 1   
    45    19    22 1   
    46    19    52 1   
    47    20    53 1   
    48    20    54 1   
    49    20    55 1   
    50    21    56 1   
    51    21    57 1   
    52    22    23 1   
    53    22    24 1   
    54    22    58 1   
    55    23    59 1   
    56    23    60 1   
    57    23    61 1   
    58    24    25 1   
    59    25    26 1   
    60    25    62 1   
    61    25    63 1   
    62    26    27 1   
    63    26    64 1   
    64    26    65 1   
    65    27    28 1   
    66    27    29 1   
    67    27    30 1   
    68    28    66 1   
    69    28    67 1   
    70    28    68 1   
    71    29    69 1   
    72    29    70 1   
    73    29    71 1   
    74    30    72 1   
@<TRIPOS>SUBSTRUCTURE
     1 MCZ         1 TEMP              0 ****  ****    0 ROOT
