@<TRIPOS>MOLECULE
MD0
   23    22     1     0     0
SMALL
abcg2


@<TRIPOS>ATOM
      1 C           49.6480    42.5270     1.8760 c          1 MD0       0.723000
      2 N           49.3250    41.8760    -0.4750 n8         1 MD0      -0.995200
      3 OXT         50.4890    42.9340     2.7020 o          1 MD0      -0.733000
      4 CA          50.1870    41.6960     0.6860 c3         1 MD0       0.021500
      5 CB          50.3850    40.2090     1.0730 c3         1 MD0      -0.063700
      6 NE          53.1660    38.4130     2.9940 n8         1 MD0      -0.991200
      7 CG          51.5670    39.9950     2.0180 c3         1 MD0      -0.067400
      8 CG2         49.1060    39.5640     1.6030 c3         1 MD0      -0.077100
      9 O           48.4130    42.7050     1.9250 o          1 MD0      -0.733000
     10 HN          49.4360    41.0990    -1.1150 hn         1 MD0       0.379000
     11 HNA         48.3640    41.8610    -0.1570 hn         1 MD0       0.379000
     12 HA          51.1820    42.0820     0.4340 h1         1 MD0       0.043700
     13 HB          50.6400    39.7010     0.1310 hc         1 MD0      -0.005300
     14 HD          51.1720    37.9730     2.6510 h1         1 MD0       0.014200
     15 HDA         52.0900    38.0960     1.1620 h1         1 MD0       0.014200
     16 HNE         53.4100    37.4350     3.0910 hn         1 MD0       0.376000
     17 HNEA        53.9490    38.8400     2.5140 hn         1 MD0       0.376000
     18 HG          52.4280    40.5560     1.6350 hc         1 MD0       0.061200
     19 HGA         51.3470    40.4090     3.0040 hc         1 MD0       0.061200
     20 HG2         49.1980    38.4780     1.6480 hc         1 MD0       0.024033
     21 HG2A        48.8670    39.9160     2.6080 hc         1 MD0       0.024033
     22 HG2B        48.2530    39.7850     0.9600 hc         1 MD0       0.024033
     23 CD          51.9740    38.5350     2.1650 c3         1 MD0       0.143800
@<TRIPOS>BOND
     1     1     3 1   
     2     1     4 1   
     3     1     9 1   
     4     2     4 1   
     5     2    10 1   
     6     2    11 1   
     7     4     5 1   
     8     4    12 1   
     9     5     7 1   
    10     5     8 1   
    11     5    13 1   
    12     6    16 1   
    13     6    17 1   
    14     6    23 1   
    15     7    18 1   
    16     7    19 1   
    17     7    23 1   
    18     8    20 1   
    19     8    21 1   
    20     8    22 1   
    21    14    23 1   
    22    15    23 1   
@<TRIPOS>SUBSTRUCTURE
     1 MD0         1 TEMP              0 ****  ****    0 ROOT
