@<TRIPOS>MOLECULE
MD0
   23    22     1     0     0
SMALL
No Charge or Current Charge


@<TRIPOS>ATOM
      1 C           49.8080    42.5930     1.9960 c          1 MD0       0.723000
      2 N           49.2180    41.8900    -0.4790 n8         1 MD0      -0.995200
      3 OXT         50.7040    43.2690     2.4870 o          1 MD0      -0.733000
      4 CA          50.1450    41.7290     0.7020 c3         1 MD0       0.021500
      5 CB          50.3550    40.2120     1.0260 c3         1 MD0      -0.063700
      6 NE          53.1380    38.3980     3.0780 n8         1 MD0      -0.991200
      7 CG          51.5340    39.9970     2.0200 c3         1 MD0      -0.067400
      8 CG2         49.0560    39.5050     1.5030 c3         1 MD0      -0.077100
      9 O           48.6420    42.6710     2.3670 o          1 MD0      -0.733000
     10 HN          49.4280    41.1630    -1.1710 hn         1 MD0       0.379000
     11 HNA         48.2640    41.6680    -0.1700 hn         1 MD0       0.379000
     12 HA          51.1190    42.0990     0.3530 h1         1 MD0       0.043700
     13 HB          50.6490    39.7270     0.0860 hc         1 MD0      -0.005300
     14 HD          51.1460    37.9380     2.6330 h1         1 MD0       0.014200
     15 HDA         52.2200    38.0910     1.2170 h1         1 MD0       0.014200
     16 HNE         53.4200    37.4120     3.1210 hn         1 MD0       0.376000
     17 HNEA        53.9390    38.8620     2.6360 hn         1 MD0       0.376000
     18 HG          52.4000    40.5710     1.6660 hc         1 MD0       0.061200
     19 HGA         51.2660    40.4060     3.0010 hc         1 MD0       0.061200
     20 HG2         49.1960    38.4190     1.5540 hc         1 MD0       0.024033
     21 HG2A        48.7600    39.8550     2.4990 hc         1 MD0       0.024033
     22 HG2B        48.2240    39.6890     0.8130 hc         1 MD0       0.024033
     23 CD          51.9650    38.5220     2.1950 c3         1 MD0       0.143800
@<TRIPOS>BOND
     1     1     3 1   
     2     1     4 1   
     3     1     9 1   
     4     2     4 1   
     5     2    10 1   
     6     2    11 1   
     7     4     5 1   
     8     4    12 1   
     9     5     7 1   
    10     5     8 1   
    11     5    13 1   
    12     6    16 1   
    13     6    17 1   
    14     6    23 1   
    15     7    18 1   
    16     7    19 1   
    17     7    23 1   
    18     8    20 1   
    19     8    21 1   
    20     8    22 1   
    21    14    23 1   
    22    15    23 1   
@<TRIPOS>SUBSTRUCTURE
     1 MD0         1 TEMP              0 ****  ****    0 ROOT
