@<TRIPOS>MOLECULE
MD1
   71    75     1     0     0
SMALL
No Charge or Current Charge


@<TRIPOS>ATOM
      1 PB         123.9090   -62.2290   -22.7380 p5         1 MD1       1.471800
      2 O3B       -124.5090   -60.7770   -22.5990 os         1 MD1      -0.740800
      3 O1B        124.8470   -63.1800   -23.4030 o          1 MD1      -0.850500
      4 O2B       -122.5310   -62.2870   -23.3060 o          1 MD1      -0.850500
      5 O3A        123.8350   -62.5470   -21.1620 os         1 MD1      -0.577400
      6 C10       -125.0550   -62.8590   -20.4750 c3         1 MD1       0.238600
      7 C11        124.8010   -62.8680   -18.9400 c3         1 MD1       0.198500
      8 O11       -124.4340   -61.5510   -18.4740 oh         1 MD1      -0.597000
      9 C12        126.0340   -63.3780   -18.1830 c2         1 MD1       0.074400
     10 S12       -127.2970   -62.1020   -18.0460 sh         1 MD1      -0.365400
     11 C13        126.2170   -64.6170   -17.6670 c2         1 MD1      -0.017600
     12 S13       -127.7180   -65.0920   -16.7990 sh         1 MD1      -0.298400
     13 C14        125.2100   -65.7730   -17.7150 c6         1 MD1       0.142400
     14 N15       -123.9910   -65.3980   -16.9600 nu         1 MD1      -0.724200
     15 C16        122.7160   -65.6210   -17.5060 cc         1 MD1      -0.122200
     16 C15       -121.5430   -65.3250   -16.6480 c          1 MD1       0.580200
     17 O14        121.5950   -64.9000   -15.5020 o          1 MD1      -0.554000
     18 N17       -120.3740   -65.5730   -17.2580 ns         1 MD1      -0.432400
     19 C17        120.2900   -66.0350   -18.5090 cc         1 MD1       0.694800
     20 N16       -119.0630   -66.2320   -18.9680 nv         1 MD1      -1.040200
     21 N18        121.2730   -66.3150   -19.3200 nd         1 MD1      -0.652300
     22 C20       -122.5500   -66.1030   -18.8100 cd         1 MD1       0.363200
     23 N8         123.6500   -66.3730   -19.6000 nf         1 MD1      -0.521300
     24 C7        -124.8840   -66.2390   -19.1550 c2         1 MD1       0.455200
     25 PA         124.2470   -59.7650   -23.7790 p5         1 MD1       1.487800
     26 O1A       -122.8300   -59.3000   -23.8300 o          1 MD1      -0.849000
     27 O2A        125.1620   -58.5950   -23.6350 o          1 MD1      -0.849000
     28 O5        -124.6520   -60.6440   -25.0700 os         1 MD1      -0.600400
     29 C5         126.0310   -60.8490   -25.4280 c3         1 MD1       0.208600
     30 C4        -126.5570   -59.6670   -26.3070 c5         1 MD1       0.140300
     31 O4         126.0780   -59.8280   -27.6750 os         1 MD1      -0.461000
     32 C1        -127.1600   -60.2980   -28.5180 c5         1 MD1       0.308300
     33 N9         126.6600   -61.3160   -29.4410 na         1 MD1      -0.174500
     34 C18       -126.3790   -61.1440   -30.7730 cc         1 MD1       0.122400
     35 N3         126.4540   -59.9840   -31.5200 nc         1 MD1      -0.677100
     36 C2        -126.1130   -60.1580   -32.7750 cd         1 MD1       0.703800
     37 N2         126.1580   -59.0790   -33.5360 nv         1 MD1      -1.066200
     38 N1        -125.7210   -61.3060   -33.3640 ns         1 MD1      -0.461400
     39 C6         125.6260   -62.4970   -32.7020 c          1 MD1       0.521500
     40 O6        -125.2740   -63.5250   -33.2650 o          1 MD1      -0.549000
     41 C9         125.9990   -62.3720   -31.2610 cd         1 MD1       0.092500
     42 N7        -126.0490   -63.3200   -30.2460 nd         1 MD1      -0.615000
     43 C8         126.4560   -62.6560   -29.1650 cc         1 MD1       0.450400
     44 C19       -128.3230   -60.7020   -27.5440 c5         1 MD1       0.081300
     45 O2         129.6390   -60.6110   -28.1340 oh         1 MD1      -0.729000
     46 C3        -128.1190   -59.6320   -26.4340 c5         1 MD1       0.103300
     47 O3         128.6230   -58.3570   -26.8710 oh         1 MD1      -0.729000
     48 H101      -125.8400   -62.1270   -20.7090 h1         1 MD1       0.026700
     49 H102       125.4180   -63.8490   -20.7800 h1         1 MD1       0.026700
     50 H11       -123.9600   -63.5470   -18.7660 h1         1 MD1       0.045700
     51 H1         124.0520   -61.6620   -17.5780 ho         1 MD1       0.432000
     52 H12       -126.5360   -61.1120   -18.5790 hs         1 MD1       0.240800
     53 H13        127.3380   -66.3530   -16.4910 hs         1 MD1       0.148800
     54 H14       -125.6540   -66.6400   -17.2060 h1         1 MD1       0.020700
     55 H15        124.0510   -65.1370   -15.9680 hn         1 MD1       0.468000
     56 H17       -119.5360   -65.3720   -16.7400 hn         1 MD1       0.320500
     57 H161       119.0300   -66.7480   -19.8390 hn         1 MD1       0.488500
     58 H162      -118.3430   -66.4690   -18.2960 hn         1 MD1       0.488500
     59 H7         125.7250   -66.4630   -19.8060 h4         1 MD1       0.048800
     60 H5'1      -126.1430   -61.7950   -25.9740 h1         1 MD1       0.043700
     61 H5'2       126.6500   -60.9200   -24.5230 h1         1 MD1       0.043700
     62 H4        -126.1830   -58.7180   -25.9060 h1         1 MD1       0.092700
     63 H6         127.5000   -59.4640   -29.1450 h2         1 MD1       0.091700
     64 HN21      -125.5270   -59.0470   -34.3270 hn         1 MD1       0.490000
     65 HN22       126.2580   -58.2110   -33.0220 hn         1 MD1       0.490000
     66 HN1       -125.5010   -61.3180   -34.3470 hn         1 MD1       0.301500
     67 H8         126.6090   -63.0770   -28.1780 h5         1 MD1       0.118100
     68 H2        -128.1530   -61.7110   -27.1390 h1         1 MD1       0.088700
     69 H9         130.2330   -61.2380   -27.6530 ho         1 MD1       0.515000
     70 H3        -128.5990   -59.9370   -25.4910 h1         1 MD1       0.135700
     71 H18        129.3510   -58.5860   -27.5010 ho         1 MD1       0.498000
@<TRIPOS>BOND
     1     1     2 1   
     2     1     3 1   
     3     1     4 1   
     4     1     5 1   
     5     2    25 1   
     6     5     6 1   
     7     6     7 1   
     8     6    48 1   
     9     6    49 1   
    10     7     8 1   
    11     7     9 1   
    12     7    50 1   
    13     8    51 1   
    14     9    10 1   
    15     9    11 2   
    16    10    52 1   
    17    11    12 1   
    18    11    13 1   
    19    12    53 1   
    20    13    14 1   
    21    13    24 1   
    22    13    54 1   
    23    14    15 1   
    24    14    55 1   
    25    15    16 1   
    26    15    22 2   
    27    16    17 2   
    28    16    18 1   
    29    18    19 1   
    30    18    56 1   
    31    19    20 1   
    32    19    21 2   
    33    20    57 1   
    34    20    58 1   
    35    21    22 1   
    36    22    23 1   
    37    23    24 2   
    38    24    59 1   
    39    25    26 1   
    40    25    27 1   
    41    25    28 1   
    42    28    29 1   
    43    29    30 1   
    44    29    60 1   
    45    29    61 1   
    46    30    31 1   
    47    30    46 1   
    48    30    62 1   
    49    31    32 1   
    50    32    33 1   
    51    32    44 1   
    52    32    63 1   
    53    33    34 1   
    54    33    43 1   
    55    34    35 1   
    56    34    41 2   
    57    35    36 2   
    58    36    37 1   
    59    36    38 1   
    60    37    64 1   
    61    37    65 1   
    62    38    39 1   
    63    38    66 1   
    64    39    40 2   
    65    39    41 1   
    66    41    42 1   
    67    42    43 2   
    68    43    67 1   
    69    44    45 1   
    70    44    46 1   
    71    44    68 1   
    72    45    69 1   
    73    46    47 1   
    74    46    70 1   
    75    47    71 1   
@<TRIPOS>SUBSTRUCTURE
     1 MD1         1 TEMP              0 ****  ****    0 ROOT
