@<TRIPOS>MOLECULE
MD1
   71    75     1     0     0
SMALL
abcg2


@<TRIPOS>ATOM
      1 PB        -124.0180   -62.0940   -23.4830 p5         1 MD1       1.471800
      2 O3B       -124.9650   -60.7900   -23.1420 os         1 MD1      -0.740800
      3 O1B       -124.7250   -62.8670   -24.5540 o          1 MD1      -0.850500
      4 O2B       -122.5840   -61.6990   -23.6030 o          1 MD1      -0.850500
      5 O3A       -124.1450   -62.8960   -22.0560 os         1 MD1      -0.577400
      6 C10       -125.3570   -63.5340   -21.7180 c3         1 MD1       0.238600
      7 C11       -125.2180   -64.0840   -20.3100 c3         1 MD1       0.198500
      8 O11       -125.1530   -63.0120   -19.4050 oh         1 MD1      -0.597000
      9 C12       -126.3430   -65.0320   -19.9410 c2         1 MD1       0.074400
     10 S12       -128.0010   -64.5780   -20.3940 sh         1 MD1      -0.365400
     11 C13       -126.1910   -66.0790   -19.1140 c2         1 MD1      -0.017600
     12 S13       -127.5760   -67.0970   -18.7180 sh         1 MD1      -0.298400
     13 C14       -124.8660   -66.4240   -18.4530 c6         1 MD1       0.142400
     14 N15       -124.3440   -65.2800   -17.7250 nu         1 MD1      -0.724200
     15 C16       -122.9840   -65.3730   -17.4140 cc         1 MD1      -0.122200
     16 C15       -122.4690   -64.6210   -16.3080 c          1 MD1       0.580200
     17 O14       -123.1350   -63.9160   -15.5630 o          1 MD1      -0.554000
     18 N17       -121.1030   -64.7670   -16.1440 ns         1 MD1      -0.432400
     19 C17       -120.3150   -65.5340   -16.9470 cc         1 MD1       0.694800
     20 N16       -118.9950   -65.5600   -16.6800 nv         1 MD1      -1.040200
     21 N18       -120.7940   -66.1870   -17.9670 nd         1 MD1      -0.652300
     22 C20       -122.1220   -66.0880   -18.1930 cd         1 MD1       0.363200
     23 N8        -122.5850   -66.7460   -19.3360 nf         1 MD1      -0.521300
     24 C7        -123.8380   -66.8730   -19.4730 c2         1 MD1       0.455200
     25 PA        -124.7160   -59.1680   -23.2010 p5         1 MD1       1.487800
     26 O1A       -123.7210   -58.7310   -22.1770 o          1 MD1      -0.849000
     27 O2A       -126.0910   -58.5760   -23.2560 o          1 MD1      -0.849000
     28 O5        -123.9560   -58.9700   -24.6480 os         1 MD1      -0.600400
     29 C5        -124.3710   -59.6350   -25.8170 c3         1 MD1       0.208600
     30 C4        -124.8000   -58.6510   -26.8980 c5         1 MD1       0.140300
     31 O4        -124.9550   -59.3830   -28.1200 os         1 MD1      -0.461000
     32 C1        -126.3090   -59.5260   -28.4450 c5         1 MD1       0.308300
     33 N9        -126.5870   -60.8920   -28.8170 na         1 MD1      -0.174500
     34 C18       -127.0070   -61.3150   -30.0420 cc         1 MD1       0.122400
     35 N3        -127.2720   -60.5390   -31.1010 nc         1 MD1      -0.677100
     36 C2        -127.6580   -61.2150   -32.1550 cd         1 MD1       0.703800
     37 N2        -127.9920   -60.5640   -33.2780 nv         1 MD1      -1.066200
     38 N1        -127.7730   -62.5750   -32.1640 ns         1 MD1      -0.461400
     39 C6        -127.5080   -63.4340   -31.0880 c          1 MD1       0.521500
     40 O6        -127.6440   -64.6390   -31.2090 o          1 MD1      -0.549000
     41 C9        -127.0900   -62.6910   -29.9460 cd         1 MD1       0.092500
     42 N7        -126.7200   -63.1120   -28.6950 nd         1 MD1      -0.615000
     43 C8        -126.4280   -62.0250   -28.0520 cc         1 MD1       0.450400
     44 C19       -127.0980   -59.0400   -27.2270 c5         1 MD1       0.081300
     45 O2        -128.3410   -58.5510   -27.6410 oh         1 MD1      -0.729000
     46 C3        -126.1450   -57.9880   -26.6520 c5         1 MD1       0.103300
     47 O3        -126.2020   -56.8000   -27.4040 oh         1 MD1      -0.729000
     48 H101      -126.2040   -62.8400   -21.7650 h1         1 MD1       0.026700
     49 H102      -125.5710   -64.3620   -22.4030 h1         1 MD1       0.026700
     50 H11       -124.2810   -64.6530   -20.3060 h1         1 MD1       0.045700
     51 H1        -124.8460   -63.4060   -18.5750 ho         1 MD1       0.432000
     52 H12       -127.9070   -64.7380   -21.7210 hs         1 MD1       0.240800
     53 H13       -126.9170   -67.9800   -17.9590 hs         1 MD1       0.148800
     54 H14       -125.0170   -67.2850   -17.7820 h1         1 MD1       0.020700
     55 H15       -124.9070   -65.0670   -16.9100 hn         1 MD1       0.468000
     56 H17       -120.6870   -64.2490   -15.3780 hn         1 MD1       0.320500
     57 H161      -118.4520   -66.2550   -17.1660 hn         1 MD1       0.488500
     58 H162      -118.6540   -65.2980   -15.7710 hn         1 MD1       0.488500
     59 H7        -124.2120   -67.3750   -20.3620 h4         1 MD1       0.048800
     60 H5'1      -123.5290   -60.2170   -26.2020 h1         1 MD1       0.043700
     61 H5'2      -125.1770   -60.3490   -25.6220 h1         1 MD1       0.043700
     62 H4        -124.0150   -57.9020   -27.0410 h1         1 MD1       0.092700
     63 H6        -126.5680   -58.9200   -29.3190 h2         1 MD1       0.091700
     64 HN21      -128.1150   -61.0490   -34.1500 hn         1 MD1       0.490000
     65 HN22      -127.7830   -59.5810   -33.3300 hn         1 MD1       0.490000
     66 HN1       -128.0790   -63.0280   -33.0170 hn         1 MD1       0.301500
     67 H8        -126.0830   -61.9860   -27.0290 h5         1 MD1       0.118100
     68 H2        -127.2140   -59.8510   -26.4980 h1         1 MD1       0.088700
     69 H9        -128.9410   -58.5520   -26.8880 ho         1 MD1       0.515000
     70 H3        -126.3260   -57.8090   -25.5860 h1         1 MD1       0.135700
     71 H18       -127.1310   -56.5750   -27.5300 ho         1 MD1       0.498000
@<TRIPOS>BOND
     1     1     2 1   
     2     1     3 1   
     3     1     4 1   
     4     1     5 1   
     5     2    25 1   
     6     5     6 1   
     7     6     7 1   
     8     6    48 1   
     9     6    49 1   
    10     7     8 1   
    11     7     9 1   
    12     7    50 1   
    13     8    51 1   
    14     9    10 1   
    15     9    11 2   
    16    10    52 1   
    17    11    12 1   
    18    11    13 1   
    19    12    53 1   
    20    13    14 1   
    21    13    24 1   
    22    13    54 1   
    23    14    15 1   
    24    14    55 1   
    25    15    16 1   
    26    15    22 2   
    27    16    17 2   
    28    16    18 1   
    29    18    19 1   
    30    18    56 1   
    31    19    20 1   
    32    19    21 2   
    33    20    57 1   
    34    20    58 1   
    35    21    22 1   
    36    22    23 1   
    37    23    24 2   
    38    24    59 1   
    39    25    26 1   
    40    25    27 1   
    41    25    28 1   
    42    28    29 1   
    43    29    30 1   
    44    29    60 1   
    45    29    61 1   
    46    30    31 1   
    47    30    46 1   
    48    30    62 1   
    49    31    32 1   
    50    32    33 1   
    51    32    44 1   
    52    32    63 1   
    53    33    34 1   
    54    33    43 1   
    55    34    35 1   
    56    34    41 2   
    57    35    36 2   
    58    36    37 1   
    59    36    38 1   
    60    37    64 1   
    61    37    65 1   
    62    38    39 1   
    63    38    66 1   
    64    39    40 2   
    65    39    41 1   
    66    41    42 1   
    67    42    43 2   
    68    43    67 1   
    69    44    45 1   
    70    44    46 1   
    71    44    68 1   
    72    45    69 1   
    73    46    47 1   
    74    46    70 1   
    75    47    71 1   
@<TRIPOS>SUBSTRUCTURE
     1 MD1         1 TEMP              0 ****  ****    0 ROOT
