@<TRIPOS>MOLECULE
MD2
   34    33     1     0     0
SMALL
No Charge or Current Charge


@<TRIPOS>ATOM
      1 C1           1.5880    -0.1990     7.2630 c2         1 MD2      -0.339100
      2 C6          -0.4290     0.6580     1.8460 c3         1 MD2       0.158800
      3 C7          -0.4240    -0.3600     0.6870 c3         1 MD2      -0.078900
      4 C11         -0.4050    -0.8780    -4.3380 c3         1 MD2       0.205000
      5 C12         -0.4210    -0.0120    -5.5720 c2         1 MD2      -0.244300
      6 C2           0.5920    -0.1320     6.4040 c1         1 MD2      -0.026800
      7 C3          -0.4040    -0.0480     5.5450 c2         1 MD2      -0.244300
      8 C4          -0.4340     0.8280     4.3200 c3         1 MD2       0.205000
      9 N5          -0.4290    -0.0440     3.1410 n7         1 MD2      -0.858900
     10 C8          -0.4280     0.3120    -0.7040 c3         1 MD2      -0.078900
     11 C9          -0.4230    -0.7060    -1.8620 c3         1 MD2       0.158800
     12 N10         -0.4220    -0.0050    -3.1580 n7         1 MD2      -0.858900
     13 C13          0.6190     0.2480    -6.3380 c1         1 MD2      -0.026800
     14 C14          1.6530     0.4970    -7.1150 c2         1 MD2      -0.339100
     15 HC11         1.5970     0.4090     8.1680 ha         1 MD2       0.181250
     16 HC1A         2.4360    -0.8640     7.0960 ha         1 MD2       0.181250
     17 HC61        -1.3200     1.2960     1.7580 h1         1 MD2       0.029200
     18 HC62         0.4560     1.3030     1.7600 h1         1 MD2       0.029200
     19 HC71         0.4620    -1.0020     0.7730 hc         1 MD2       0.045450
     20 HC72        -1.3030    -1.0100     0.7750 hc         1 MD2       0.045450
     21 H111         0.4910    -1.5160    -4.3360 h1         1 MD2       0.036950
     22 H112        -1.2830    -1.5390    -4.3440 h1         1 MD2       0.036950
     23 HC12        -1.4090     0.3480    -5.8590 ha         1 MD2       0.191000
     24 HC3         -1.3180    -0.6170     5.7140 ha         1 MD2       0.191000
     25 HC41        -1.3380     1.4540     4.3370 h1         1 MD2       0.036950
     26 HC42         0.4380     1.4980     4.3130 h1         1 MD2       0.036950
     27 HN5          0.4180    -0.6220     3.1910 hn         1 MD2       0.406500
     28 HC81        -1.3140     0.9530    -0.7900 hc         1 MD2       0.045450
     29 HC82         0.4510     0.9620    -0.7910 hc         1 MD2       0.045450
     30 HC91         0.4680    -1.3440    -1.7730 h1         1 MD2       0.029200
     31 HC92        -1.3080    -1.3520    -1.7770 h1         1 MD2       0.029200
     32 HN10        -1.2670     0.5750    -3.2080 hn         1 MD2       0.406500
     33 H141         2.5670     0.9380    -6.7170 ha         1 MD2       0.181250
     34 H142         1.6290     0.2690    -8.1810 ha         1 MD2       0.181250
@<TRIPOS>BOND
     1     1     6 2   
     2     1    15 1   
     3     1    16 1   
     4     2     3 1   
     5     2     9 1   
     6     2    17 1   
     7     2    18 1   
     8     3    10 1   
     9     3    19 1   
    10     3    20 1   
    11     4     5 1   
    12     4    12 1   
    13     4    21 1   
    14     4    22 1   
    15     5    13 2   
    16     5    23 1   
    17     6     7 2   
    18     7     8 1   
    19     7    24 1   
    20     8     9 1   
    21     8    25 1   
    22     8    26 1   
    23     9    27 1   
    24    10    11 1   
    25    10    28 1   
    26    10    29 1   
    27    11    12 1   
    28    11    30 1   
    29    11    31 1   
    30    12    32 1   
    31    13    14 2   
    32    14    33 1   
    33    14    34 1   
@<TRIPOS>SUBSTRUCTURE
     1 MD2         1 TEMP              0 ****  ****    0 ROOT
