@<TRIPOS>MOLECULE
MD2
   34    33     1     0     0
SMALL
bcc


@<TRIPOS>ATOM
      1 C1           1.2890    -0.0440     7.4870 c2         1 MD2      -0.239100
      2 C6          -0.3380     0.5390     1.8660 c3         1 MD2       0.158800
      3 C7          -0.3000    -0.3840     0.6580 c3         1 MD2      -0.078900
      4 C11         -0.3360    -0.6470    -4.2780 c3         1 MD2       0.205000
      5 C12         -0.4330     0.1690    -5.5380 c2         1 MD2      -0.194300
      6 C2           0.4330    -0.1260     6.5090 c1         1 MD2      -0.026800
      7 C3          -0.4220    -0.2020     5.5280 c2         1 MD2      -0.194300
      8 C4          -0.3530     0.6360     4.2820 c3         1 MD2       0.205000
      9 N5          -0.3100    -0.2140     3.1070 n7         1 MD2      -0.803700
     10 C8          -0.3390     0.3800    -0.6580 c3         1 MD2      -0.078900
     11 C9          -0.3120    -0.5420    -1.8670 c3         1 MD2       0.158800
     12 N10         -0.3420     0.2120    -3.1070 n7         1 MD2      -0.803700
     13 C13          0.4680     0.1770    -6.4790 c1         1 MD2      -0.026800
     14 C14          1.3680     0.1720    -7.4200 c2         1 MD2      -0.239100
     15 HC11         1.1370     0.6380     8.3150 ha         1 MD2       0.131250
     16 HC1A         2.1830    -0.6580     7.5070 ha         1 MD2       0.131250
     17 HC61        -1.2630     1.1240     1.8430 h1         1 MD2       0.029200
     18 HC62         0.4870     1.2660     1.7950 h1         1 MD2       0.029200
     19 HC71         0.6070    -0.9970     0.6970 hc         1 MD2       0.045450
     20 HC72        -1.1450    -1.0780     0.7130 hc         1 MD2       0.045450
     21 H111         0.5900    -1.2260    -4.2850 h1         1 MD2       0.036950
     22 H112        -1.1620    -1.3750    -4.2680 h1         1 MD2       0.036950
     23 HC12        -1.3200     0.7870    -5.6590 ha         1 MD2       0.141000
     24 HC3         -1.2410    -0.9130     5.5960 ha         1 MD2       0.141000
     25 HC41        -1.2590     1.2480     4.2220 h1         1 MD2       0.036950
     26 HC42         0.4920     1.3360     4.3480 h1         1 MD2       0.036950
     27 HN5          0.5410    -0.7650     3.1380 hn         1 MD2       0.351300
     28 HC81        -1.2440     0.9980    -0.6930 hc         1 MD2       0.045450
     29 HC82         0.5090     1.0690    -0.7150 hc         1 MD2       0.045450
     30 HC91         0.6090    -1.1340    -1.8490 h1         1 MD2       0.029200
     31 HC92        -1.1420    -1.2640    -1.7930 h1         1 MD2       0.029200
     32 HN10        -1.1850     0.7760    -3.1210 hn         1 MD2       0.351300
     33 H141         2.1950     0.8730    -7.4140 ha         1 MD2       0.131250
     34 H142         1.3220    -0.5320    -8.2430 ha         1 MD2       0.131250
@<TRIPOS>BOND
     1     1     6 2   
     2     1    15 1   
     3     1    16 1   
     4     2     3 1   
     5     2     9 1   
     6     2    17 1   
     7     2    18 1   
     8     3    10 1   
     9     3    19 1   
    10     3    20 1   
    11     4     5 1   
    12     4    12 1   
    13     4    21 1   
    14     4    22 1   
    15     5    13 2   
    16     5    23 1   
    17     6     7 2   
    18     7     8 1   
    19     7    24 1   
    20     8     9 1   
    21     8    25 1   
    22     8    26 1   
    23     9    27 1   
    24    10    11 1   
    25    10    28 1   
    26    10    29 1   
    27    11    12 1   
    28    11    30 1   
    29    11    31 1   
    30    12    32 1   
    31    13    14 2   
    32    14    33 1   
    33    14    34 1   
@<TRIPOS>SUBSTRUCTURE
     1 MD2         1 TEMP              0 ****  ****    0 ROOT
