@<TRIPOS>MOLECULE
MD3
   36    37     1     0     0
SMALL
bcc


@<TRIPOS>ATOM
      1 C16         -5.1630    -1.2390     1.3370 ca         1 MD3      -0.107000
      2 N            3.0920    -0.3280     0.0690 ns         1 MD3      -0.543900
      3 O05          3.5300    -2.7040     1.1500 o          1 MD3      -0.833800
      4 SG           0.2010     0.6420    -0.0990 ss         1 MD3      -0.348200
      5 C01          4.0630    -2.5530     0.0340 c          1 MD3       0.874600
      6 OXT          4.0400     3.1380    -0.2690 o          1 MD3      -0.833800
      7 C02          3.8850    -1.1520    -0.6240 c          1 MD3       0.530100
      8 O            5.0540     1.4310     0.7530 o          1 MD3      -0.833800
      9 CA           2.9120     1.0580    -0.2640 c3         1 MD3      -0.024300
     10 O03          4.4060    -0.8610    -1.6920 o          1 MD3      -0.664100
     11 C            4.1300     1.9540     0.1150 c          1 MD3       0.926600
     12 O04          4.7180    -3.3700    -0.6240 o          1 MD3      -0.833800
     13 CB           1.6600     1.5970     0.4140 c3         1 MD3       0.049700
     14 C06         -1.0940     1.5670     0.7880 c3         1 MD3       0.030000
     15 C07         -2.4320     1.0840     0.3210 ca         1 MD3      -0.029300
     16 C08         -2.9500     1.5490    -0.9120 ca         1 MD3      -0.096000
     17 C09         -4.1590     1.1130    -1.3750 ca         1 MD3      -0.138000
     18 C10         -4.9220     0.1770    -0.6360 ca         1 MD3      -0.042000
     19 C11         -3.1530     0.1730     1.0480 ca         1 MD3      -0.120000
     20 C12         -4.4070    -0.3010     0.5960 ca         1 MD3      -0.030000
     21 C13         -6.1770    -0.2940    -1.0870 ca         1 MD3      -0.116000
     22 C14         -6.8870    -1.2020    -0.3490 ca         1 MD3      -0.145000
     23 C15         -6.3740    -1.6800     0.8750 ca         1 MD3      -0.146000
     24 H16         -4.7710    -1.6050     2.2790 ha         1 MD3       0.129000
     25 H2           2.8080    -0.6620     0.9780 hn         1 MD3       0.321500
     26 HA           2.7750     1.1360    -1.3470 h1         1 MD3       0.060700
     27 HB2          1.5210     2.6410     0.1370 h1         1 MD3       0.051700
     28 HB3          1.7580     1.5460     1.5020 h1         1 MD3       0.051700
     29 H06         -0.9770     1.4190     1.8630 h1         1 MD3       0.055200
     30 H06A        -0.9710     2.6310     0.5770 h1         1 MD3       0.055200
     31 H08         -2.3750     2.2640    -1.4890 ha         1 MD3       0.143000
     32 H09         -4.5460     1.4830    -2.3170 ha         1 MD3       0.120000
     33 H11         -2.7650    -0.1950     1.9920 ha         1 MD3       0.139000
     34 H13         -6.5700     0.0740    -2.0270 ha         1 MD3       0.119000
     35 H14         -7.8460    -1.5580    -0.7010 ha         1 MD3       0.113000
     36 H15         -6.9450    -2.3980     1.4500 ha         1 MD3       0.116000
@<TRIPOS>BOND
     1     1    20 ar  
     2     1    23 ar  
     3     1    24 1   
     4     2     7 1   
     5     2     9 1   
     6     2    25 1   
     7     3     5 1   
     8     4    13 1   
     9     4    14 1   
    10     5     7 1   
    11     5    12 1   
    12     6    11 1   
    13     7    10 2   
    14     8    11 1   
    15     9    11 1   
    16     9    13 1   
    17     9    26 1   
    18    13    27 1   
    19    13    28 1   
    20    14    15 1   
    21    14    29 1   
    22    14    30 1   
    23    15    16 ar  
    24    15    19 ar  
    25    16    17 ar  
    26    16    31 1   
    27    17    18 ar  
    28    17    32 1   
    29    18    20 ar  
    30    18    21 ar  
    31    19    20 ar  
    32    19    33 1   
    33    21    22 ar  
    34    21    34 1   
    35    22    23 ar  
    36    22    35 1   
    37    23    36 1   
@<TRIPOS>SUBSTRUCTURE
     1 MD3         1 TEMP              0 ****  ****    0 ROOT
