@<TRIPOS>MOLECULE
MD3
   36    37     1     0     0
SMALL
No Charge or Current Charge


@<TRIPOS>ATOM
      1 C16         -4.8470    -1.4370     1.2060 ca         1 MD3      -0.107000
      2 N            3.3300    -0.2250     0.2400 ns         1 MD3      -0.543900
      3 O05          3.7040    -2.8600     1.2770 o          1 MD3      -0.833800
      4 SG           0.3140     0.8480    -0.2850 ss         1 MD3      -0.348200
      5 C01          3.4690    -2.7990     0.0660 c          1 MD3       0.874600
      6 OXT          4.9480     2.7310    -0.4570 o          1 MD3      -0.833800
      7 C02          3.2490    -1.3090    -0.6360 c          1 MD3       0.530100
      8 O            4.5600     2.1420     1.5740 o          1 MD3      -0.833800
      9 CA           3.1120     1.2110    -0.1150 c3         1 MD3      -0.024300
     10 O03          3.0410    -1.1310    -1.8430 o          1 MD3      -0.664100
     11 C            4.2900     2.1180     0.3770 c          1 MD3       0.926600
     12 O04          3.4020    -3.8200    -0.6290 o          1 MD3      -0.833800
     13 CB           1.7670     1.7450     0.4310 c3         1 MD3       0.049700
     14 C06         -1.0580     1.7370     0.5720 c3         1 MD3       0.030000
     15 C07         -2.4110     1.1850     0.1500 ca         1 MD3      -0.029300
     16 C08         -3.0810     1.7240    -0.9650 ca         1 MD3      -0.096000
     17 C09         -4.3320     1.2170    -1.3560 ca         1 MD3      -0.138000
     18 C10         -4.9240     0.1640    -0.6340 ca         1 MD3      -0.042000
     19 C11         -3.0030     0.1290     0.8710 ca         1 MD3      -0.120000
     20 C12         -4.2560    -0.3820     0.4840 ca         1 MD3      -0.030000
     21 C13         -6.1770    -0.3470    -1.0210 ca         1 MD3      -0.116000
     22 C14         -6.7630    -1.4000    -0.2970 ca         1 MD3      -0.145000
     23 C15         -6.0990    -1.9450     0.8150 ca         1 MD3      -0.146000
     24 H16         -4.3380    -1.8640     2.0680 ha         1 MD3       0.129000
     25 H2           3.5310    -0.4570     1.2090 hn         1 MD3       0.321500
     26 HA           3.0880     1.3050    -1.2080 h1         1 MD3       0.060700
     27 HB2          1.6730     2.8110     0.1840 h1         1 MD3       0.051700
     28 HB3          1.7440     1.6450     1.5240 h1         1 MD3       0.051700
     29 H06         -0.9320     1.6280     1.6570 h1         1 MD3       0.055200
     30 H06A        -1.0000     2.8060     0.3290 h1         1 MD3       0.055200
     31 H08         -2.6280     2.5370    -1.5290 ha         1 MD3       0.143000
     32 H09         -4.8390     1.6430    -2.2190 ha         1 MD3       0.120000
     33 H11         -2.4850    -0.2920     1.7300 ha         1 MD3       0.139000
     34 H13         -6.6970     0.0690    -1.8820 ha         1 MD3       0.119000
     35 H14         -7.7320    -1.7940    -0.5990 ha         1 MD3       0.113000
     36 H15         -6.5530    -2.7600     1.3750 ha         1 MD3       0.116000
@<TRIPOS>BOND
     1     1    20 ar  
     2     1    23 ar  
     3     1    24 1   
     4     2     7 1   
     5     2     9 1   
     6     2    25 1   
     7     3     5 1   
     8     4    13 1   
     9     4    14 1   
    10     5     7 1   
    11     5    12 1   
    12     6    11 1   
    13     7    10 2   
    14     8    11 1   
    15     9    11 1   
    16     9    13 1   
    17     9    26 1   
    18    13    27 1   
    19    13    28 1   
    20    14    15 1   
    21    14    29 1   
    22    14    30 1   
    23    15    16 ar  
    24    15    19 ar  
    25    16    17 ar  
    26    16    31 1   
    27    17    18 ar  
    28    17    32 1   
    29    18    20 ar  
    30    18    21 ar  
    31    19    20 ar  
    32    19    33 1   
    33    21    22 ar  
    34    21    34 1   
    35    22    23 ar  
    36    22    35 1   
    37    23    36 1   
@<TRIPOS>SUBSTRUCTURE
     1 MD3         1 TEMP              0 ****  ****    0 ROOT
