@<TRIPOS>MOLECULE
MD4
   43    46     1     0     0
SMALL
abcg2


@<TRIPOS>ATOM
      1 C21          5.0800    -1.5240     0.1880 c3         1 MD4       0.078900
      2 N16          3.6530    -1.0880     0.1170 n4         1 MD4      -0.513000
      3 C20          2.8430    -2.3170     0.3210 c3         1 MD4       0.078900
      4 C15          3.3850    -0.3560    -1.1840 c5         1 MD4       0.125300
      5 C14          4.1660     0.9500    -0.9930 c5         1 MD4      -0.103900
      6 C13          4.1760     1.1900     0.5340 c5         1 MD4      -0.103900
      7 C17          1.8920    -0.0970    -1.3340 c6         1 MD4      -0.118400
      8 C19          1.3800     0.7830    -0.1890 c6         1 MD4       0.090300
      9 C18          1.8930     0.3200     1.1790 c6         1 MD4      -0.118400
     10 C12          3.3850     0.0180     1.1210 c5         1 MD4       0.125300
     11 N10         -0.0680     0.8770    -0.2040 na         1 MD4       0.099800
     12 N9          -0.6570     2.0280    -0.4930 nc         1 MD4      -0.182800
     13 N8          -1.9250     1.8450    -0.4570 nd         1 MD4      -0.320000
     14 C11         -0.9770    -0.0820     0.0240 cc         1 MD4      -0.214000
     15 C7          -2.1850     0.5540    -0.1400 cd         1 MD4       0.291500
     16 C5          -3.5380     0.0300    -0.0180 ca         1 MD4      -0.091500
     17 C6          -3.7790    -1.2870     0.3680 ca         1 MD4      -0.144000
     18 C1          -5.0880    -1.7280     0.4700 ca         1 MD4       0.339900
     19 C4          -4.6470     0.8320    -0.2810 ca         1 MD4      -0.144000
     20 C3          -5.9140     0.2890    -0.1490 ca         1 MD4       0.339900
     21 N2          -6.1460    -0.9660     0.2190 nb         1 MD4      -0.642000
     22 H212         5.2460    -2.2870    -0.5660 hx         1 MD4       0.095367
     23 H213         5.7610    -0.6990     0.0150 hx         1 MD4       0.095367
     24 H211         5.2650    -1.9380     1.1760 hx         1 MD4       0.095367
     25 H201         3.1070    -2.7450     1.2840 hx         1 MD4       0.095367
     26 H202         1.7810    -2.1160     0.3070 hx         1 MD4       0.095367
     27 H203         3.0780    -3.0220    -0.4720 hx         1 MD4       0.095367
     28 H15          3.7520    -0.9680    -2.0060 hx         1 MD4       0.111700
     29 H141         5.1760     0.8680    -1.3900 hc         1 MD4       0.093200
     30 H142         3.6840     1.7580    -1.5410 hc         1 MD4       0.093200
     31 H132         5.1910     1.2160     0.9270 hc         1 MD4       0.093200
     32 H131         3.7100     2.1340     0.8110 hc         1 MD4       0.093200
     33 H172         1.7420     0.4160    -2.2850 hc         1 MD4       0.094200
     34 H171         1.3340    -1.0320    -1.4030 hc         1 MD4       0.094200
     35 H19          1.7170     1.8060    -0.3590 h1         1 MD4       0.109700
     36 H182         1.7500     1.1160     1.9110 hc         1 MD4       0.094200
     37 H181         1.3350    -0.5380     1.5570 hc         1 MD4       0.094200
     38 H12          3.7420    -0.3120     2.0960 hx         1 MD4       0.111700
     39 H11         -0.7180    -1.0970     0.2740 h4         1 MD4       0.160000
     40 H6          -2.9710    -1.9710     0.5910 ha         1 MD4       0.127000
     41 H1          -5.2870    -2.7510     0.7700 h4         1 MD4       0.028600
     42 H4          -4.5310     1.8640    -0.5840 ha         1 MD4       0.127000
     43 H3          -6.7840     0.9040    -0.3530 h4         1 MD4       0.028600
@<TRIPOS>BOND
     1     1     2 1   
     2     1    22 1   
     3     1    23 1   
     4     1    24 1   
     5     2     3 1   
     6     2     4 1   
     7     2    10 1   
     8     3    25 1   
     9     3    26 1   
    10     3    27 1   
    11     4     5 1   
    12     4     7 1   
    13     4    28 1   
    14     5     6 1   
    15     5    29 1   
    16     5    30 1   
    17     6    10 1   
    18     6    31 1   
    19     6    32 1   
    20     7     8 1   
    21     7    33 1   
    22     7    34 1   
    23     8     9 1   
    24     8    11 1   
    25     8    35 1   
    26     9    10 1   
    27     9    36 1   
    28     9    37 1   
    29    10    38 1   
    30    11    12 1   
    31    11    14 1   
    32    12    13 2   
    33    13    15 1   
    34    14    15 2   
    35    14    39 1   
    36    15    16 1   
    37    16    17 ar  
    38    16    19 ar  
    39    17    18 ar  
    40    17    40 1   
    41    18    21 ar  
    42    18    41 1   
    43    19    20 ar  
    44    19    42 1   
    45    20    21 ar  
    46    20    43 1   
@<TRIPOS>SUBSTRUCTURE
     1 MD4         1 TEMP              0 ****  ****    0 ROOT
