@<TRIPOS>MOLECULE
MD4
   43    46     1     0     0
SMALL
No Charge or Current Charge


@<TRIPOS>ATOM
      1 C21          5.0690    -1.6710     0.2520 c3         1 MD4       0.078900
      2 N16          3.6330    -1.1110     0.1520 n4         1 MD4      -0.513000
      3 C20          2.6970    -2.3150     0.3910 c3         1 MD4       0.078900
      4 C15          3.3880    -0.3700    -1.1970 c5         1 MD4       0.125300
      5 C14          4.3000     0.8890    -1.0380 c5         1 MD4      -0.103900
      6 C13          4.3100     1.1870     0.5070 c5         1 MD4      -0.103900
      7 C17          1.8800    -0.0130    -1.3600 c6         1 MD4      -0.118400
      8 C19          1.3760     0.9230    -0.2260 c6         1 MD4       0.090300
      9 C18          1.8960     0.4740     1.1690 c6         1 MD4      -0.118400
     10 C12          3.4020     0.0790     1.1330 c5         1 MD4       0.125300
     11 N10         -0.0990     1.0500    -0.2410 na         1 MD4       0.099800
     12 N9          -0.7370     2.2340    -0.4660 nc         1 MD4      -0.182800
     13 N8          -2.0190     1.9890    -0.4110 nd         1 MD4      -0.320000
     14 C11         -1.0000     0.0310    -0.0390 cc         1 MD4      -0.214000
     15 C7          -2.2140     0.6480    -0.1510 cd         1 MD4       0.291500
     16 C5          -3.5490     0.0290    -0.0230 ca         1 MD4      -0.091500
     17 C6          -3.7000    -1.3490     0.2440 ca         1 MD4      -0.144000
     18 C1          -4.9890    -1.8990     0.3580 ca         1 MD4       0.339900
     19 C4          -4.7320     0.7850    -0.1620 ca         1 MD4      -0.144000
     20 C3          -5.9820     0.1540    -0.0320 ca         1 MD4       0.339900
     21 N2          -6.1190    -1.1680     0.2240 nb         1 MD4      -0.642000
     22 H212         5.2060    -2.4420    -0.5090 hx         1 MD4       0.095367
     23 H213         5.7960    -0.8730     0.0930 hx         1 MD4       0.095367
     24 H211         5.2160    -2.1040     1.2430 hx         1 MD4       0.095367
     25 H201         2.8990    -2.7340     1.3790 hx         1 MD4       0.095367
     26 H202         1.6550    -2.0000     0.3360 hx         1 MD4       0.095367
     27 H203         2.8880    -3.0710    -0.3730 hx         1 MD4       0.095367
     28 H15          3.7040    -1.0230    -2.0170 hx         1 MD4       0.111700
     29 H141         5.3140     0.6790    -1.3990 hc         1 MD4       0.093200
     30 H142         3.9400     1.7380    -1.6300 hc         1 MD4       0.093200
     31 H132         5.3280     1.1240     0.9070 hc         1 MD4       0.093200
     32 H131         3.9550     2.1960     0.7440 hc         1 MD4       0.093200
     33 H172         1.7290     0.4820    -2.3280 hc         1 MD4       0.094200
     34 H171         1.2830    -0.9320    -1.4090 hc         1 MD4       0.094200
     35 H19          1.7840     1.9250    -0.4210 h1         1 MD4       0.109700
     36 H182         1.7550     1.2950     1.8860 hc         1 MD4       0.094200
     37 H181         1.3010    -0.3580     1.5640 hc         1 MD4       0.094200
     38 H12          3.7300    -0.2230     2.1320 hx         1 MD4       0.111700
     39 H11         -0.7230    -0.9940     0.1570 h4         1 MD4       0.160000
     40 H6          -2.8380    -1.9980     0.3640 ha         1 MD4       0.127000
     41 H1          -5.1200    -2.9610     0.5640 h4         1 MD4       0.028600
     42 H4          -4.6980     1.8510    -0.3680 ha         1 MD4       0.127000
     43 H3          -6.9040     0.7250    -0.1370 h4         1 MD4       0.028600
@<TRIPOS>BOND
     1     1     2 1   
     2     1    22 1   
     3     1    23 1   
     4     1    24 1   
     5     2     3 1   
     6     2     4 1   
     7     2    10 1   
     8     3    25 1   
     9     3    26 1   
    10     3    27 1   
    11     4     5 1   
    12     4     7 1   
    13     4    28 1   
    14     5     6 1   
    15     5    29 1   
    16     5    30 1   
    17     6    10 1   
    18     6    31 1   
    19     6    32 1   
    20     7     8 1   
    21     7    33 1   
    22     7    34 1   
    23     8     9 1   
    24     8    11 1   
    25     8    35 1   
    26     9    10 1   
    27     9    36 1   
    28     9    37 1   
    29    10    38 1   
    30    11    12 1   
    31    11    14 1   
    32    12    13 2   
    33    13    15 1   
    34    14    15 2   
    35    14    39 1   
    36    15    16 1   
    37    16    17 ar  
    38    16    19 ar  
    39    17    18 ar  
    40    17    40 1   
    41    18    21 ar  
    42    18    41 1   
    43    19    20 ar  
    44    19    42 1   
    45    20    21 ar  
    46    20    43 1   
@<TRIPOS>SUBSTRUCTURE
     1 MD4         1 TEMP              0 ****  ****    0 ROOT
