@<TRIPOS>MOLECULE
MD5
   32    32     1     0     0
SMALL
bcc


@<TRIPOS>ATOM
      1 C           -4.0360     1.3600    -0.7090 c          1 MD5       0.925600
      2 N           -2.7380     0.5530     1.2340 ns         1 MD5      -0.525900
      3 OXT         -3.5280     0.3940    -1.3050 o          1 MD5      -0.836800
      4 CA          -3.5440     1.6330     0.7430 c3         1 MD5      -0.042300
      5 CB          -2.7840     2.9660     0.7310 c3         1 MD5       0.048700
      6 CAA         -1.8520    -1.2010     2.6540 c          1 MD5       0.873600
      7 CAB         -2.8220     0.0080     2.4500 c          1 MD5       0.520100
      8 OAH         -3.5810     0.3940     3.3340 o          1 MD5      -0.716100
      9 OAI         -1.8550    -1.7000     3.7860 o          1 MD5      -0.822800
     10 OAJ         -1.1800    -1.5300     1.6580 o          1 MD5      -0.822800
     11 SAL         -1.9970     3.4400     2.2920 ss         1 MD5      -0.399200
     12 CAM         -3.4460     3.7670     3.3440 c3         1 MD5       0.054000
     13 CAN         -2.9420     4.0640     4.7230 ca         1 MD5      -0.049300
     14 CAO         -2.6100     3.0250     5.5900 ca         1 MD5      -0.042000
     15 CAP         -2.1080     3.2890     6.8550 ca         1 MD5      -0.150000
     16 CAQ         -1.9220     4.5950     7.2790 ca         1 MD5      -0.090000
     17 CAR         -2.2500     5.6220     6.4070 ca         1 MD5      -0.198200
     18 CAS         -2.7520     5.3750     5.1370 ca         1 MD5      -0.073000
     19 NAT         -2.0610     7.0010     6.8340 no         1 MD5       0.319200
     20 OAU         -1.6180     7.1980     7.9410 o          1 MD5      -0.240500
     21 OAV         -2.3560     7.8810     6.0590 o          1 MD5      -0.240500
     22 O           -4.8760     2.1690    -1.1400 o          1 MD5      -0.836800
     23 H2          -2.1520     0.0690     0.5700 hn         1 MD5       0.350500
     24 HA          -4.4190     1.7300     1.3900 h1         1 MD5       0.049700
     25 HB2         -1.9570     2.9150     0.0180 h1         1 MD5       0.062200
     26 HB3         -3.4470     3.7660     0.4030 h1         1 MD5       0.062200
     27 HAM         -4.0140     4.6060     2.9420 h1         1 MD5       0.083700
     28 HAMA        -4.0770     2.8800     3.3530 h1         1 MD5       0.083700
     29 HAO         -2.7520     2.0010     5.2680 ha         1 MD5       0.206000
     30 HAP         -1.8600     2.4730     7.5210 ha         1 MD5       0.142000
     31 HAQ         -1.5320     4.7980     8.2650 ha         1 MD5       0.146000
     32 HAS         -3.0010     6.1890     4.4690 ha         1 MD5       0.161000
@<TRIPOS>BOND
     1     1     3 1   
     2     1     4 1   
     3     1    22 1   
     4     2     4 1   
     5     2     7 1   
     6     2    23 1   
     7     4     5 1   
     8     4    24 1   
     9     5    11 1   
    10     5    25 1   
    11     5    26 1   
    12     6     7 1   
    13     6     9 1   
    14     6    10 1   
    15     7     8 2   
    16    11    12 1   
    17    12    13 1   
    18    12    27 1   
    19    12    28 1   
    20    13    14 ar  
    21    13    18 ar  
    22    14    15 ar  
    23    14    29 1   
    24    15    16 ar  
    25    15    30 1   
    26    16    17 ar  
    27    16    31 1   
    28    17    18 ar  
    29    17    19 1   
    30    18    32 1   
    31    19    20 1   
    32    19    21 1   
@<TRIPOS>SUBSTRUCTURE
     1 MD5         1 TEMP              0 ****  ****    0 ROOT
