@<TRIPOS>MOLECULE
MD5
   32    32     1     0     0
SMALL
No Charge or Current Charge


@<TRIPOS>ATOM
      1 C           -4.2620     1.4180    -0.6560 c          1 MD5       0.925600
      2 N           -2.7520     0.4540     1.1340 ns         1 MD5      -0.525900
      3 OXT         -3.5890     1.0430    -1.6110 o          1 MD5      -0.836800
      4 CA          -3.5550     1.6460     0.7220 c3         1 MD5      -0.042300
      5 CB          -2.6980     2.9360     0.6640 c3         1 MD5       0.048700
      6 CAA         -1.7080    -1.4260     2.5540 c          1 MD5       0.873600
      7 CAB         -2.7760    -0.1630     2.3850 c          1 MD5       0.520100
      8 OAH         -3.5560     0.2200     3.2680 o          1 MD5      -0.716100
      9 OAI         -1.6360    -2.0290     3.6310 o          1 MD5      -0.822800
     10 OAJ         -1.0060    -1.7420     1.5880 o          1 MD5      -0.822800
     11 SAL         -1.8600     3.3280     2.2730 ss         1 MD5      -0.399200
     12 CAM         -3.3170     3.8110     3.3070 c3         1 MD5       0.054000
     13 CAN         -2.8840     4.1150     4.7330 ca         1 MD5      -0.049300
     14 CAO         -2.7220     3.0650     5.6550 ca         1 MD5      -0.042000
     15 CAP         -2.3250     3.3410     6.9740 ca         1 MD5      -0.150000
     16 CAQ         -2.0860     4.6650     7.3800 ca         1 MD5      -0.090000
     17 CAR         -2.2420     5.7300     6.4640 ca         1 MD5      -0.198200
     18 CAS         -2.6420     5.4430     5.1370 ca         1 MD5      -0.073000
     19 NAT         -1.9860     7.1420     6.8900 no         1 MD5       0.319200
     20 OAU         -1.6350     7.3450     8.0560 o          1 MD5      -0.240500
     21 OAV         -2.1380     8.0390     6.0560 o          1 MD5      -0.240500
     22 O           -5.4800     1.5490    -0.7210 o          1 MD5      -0.836800
     23 H2          -2.1030     0.0540     0.4610 hn         1 MD5       0.350500
     24 HA          -4.3550     1.7980     1.4560 h1         1 MD5       0.049700
     25 HB2         -1.9250     2.8210    -0.1080 h1         1 MD5       0.062200
     26 HB3         -3.3320     3.7860     0.3780 h1         1 MD5       0.062200
     27 HAM         -3.8020     4.6900     2.8620 h1         1 MD5       0.083700
     28 HAMA        -4.0470     2.9920     3.3160 h1         1 MD5       0.083700
     29 HAO         -2.9030     2.0360     5.3450 ha         1 MD5       0.206000
     30 HAP         -2.2010     2.5250     7.6840 ha         1 MD5       0.142000
     31 HAQ         -1.7790     4.8520     8.4080 ha         1 MD5       0.146000
     32 HAS         -2.7660     6.2450     4.4110 ha         1 MD5       0.161000
@<TRIPOS>BOND
     1     1     3 1   
     2     1     4 1   
     3     1    22 1   
     4     2     4 1   
     5     2     7 1   
     6     2    23 1   
     7     4     5 1   
     8     4    24 1   
     9     5    11 1   
    10     5    25 1   
    11     5    26 1   
    12     6     7 1   
    13     6     9 1   
    14     6    10 1   
    15     7     8 2   
    16    11    12 1   
    17    12    13 1   
    18    12    27 1   
    19    12    28 1   
    20    13    14 ar  
    21    13    18 ar  
    22    14    15 ar  
    23    14    29 1   
    24    15    16 ar  
    25    15    30 1   
    26    16    17 ar  
    27    16    31 1   
    28    17    18 ar  
    29    17    19 1   
    30    18    32 1   
    31    19    20 1   
    32    19    21 1   
@<TRIPOS>SUBSTRUCTURE
     1 MD5         1 TEMP              0 ****  ****    0 ROOT
