@<TRIPOS>MOLECULE
MD6
   21    21     1     0     0
SMALL
No Charge or Current Charge


@<TRIPOS>ATOM
      1 C           -4.6140     2.0240    -1.1710 c          1 MD6       0.925600
      2 N           -3.4790     2.2550     1.1030 ns         1 MD6      -0.515900
      3 O           -4.7060     1.2230    -2.0950 o          1 MD6      -0.834300
      4 CA          -4.4410     1.4720     0.2790 c3         1 MD6      -0.058000
      5 N2          -1.6290     2.4610     4.3460 nb         1 MD6      -0.603000
      6 OXT         -4.5960     3.2380    -1.3460 o          1 MD6      -0.834300
      7 C3          -3.0280     1.9010     2.3650 c          1 MD6       0.566600
      8 O3          -3.4340     0.8520     2.8670 o          1 MD6      -0.629100
      9 C4          -2.0300     2.8440     3.0900 ca         1 MD6       0.352800
     10 C5          -0.7630     3.2380     5.0300 ca         1 MD6       0.352200
     11 C6          -0.2450     4.4340     4.5130 ca         1 MD6      -0.213300
     12 C7          -0.6320     4.8560     3.2320 ca         1 MD6      -0.210000
     13 C8          -1.5340     4.0600     2.5040 ca         1 MD6       0.049800
     14 H2          -3.1290     3.1360     0.7300 hn         1 MD6       0.348500
     15 HA2         -5.4240     1.4850     0.7680 h1         1 MD6       0.036200
     16 HA3         -4.0960     0.4320     0.2180 h1         1 MD6       0.036200
     17 HO4         -1.4250     5.3460     1.0740 ho         1 MD6       0.423000
     18 H5          -0.4770     2.8900     6.0210 h4         1 MD6       0.013100
     19 H6           0.4510     5.0220     5.1070 ha         1 MD6       0.127000
     20 H7          -0.2360     5.7820     2.8200 ha         1 MD6       0.127000
     21 O4          -1.8880     4.5000     1.2550 oh         1 MD6      -0.460100
@<TRIPOS>BOND
     1     1     3 1   
     2     1     4 1   
     3     1     6 1   
     4     2     4 1   
     5     2     7 1   
     6     2    14 1   
     7     4    15 1   
     8     4    16 1   
     9     5     9 ar  
    10     5    10 ar  
    11     7     8 2   
    12     7     9 1   
    13     9    13 ar  
    14    10    11 ar  
    15    10    18 1   
    16    11    12 ar  
    17    11    19 1   
    18    12    13 ar  
    19    12    20 1   
    20    13    21 1   
    21    17    21 1   
@<TRIPOS>SUBSTRUCTURE
     1 MD6         1 TEMP              0 ****  ****    0 ROOT
