@<TRIPOS>MOLECULE
MD6
   21    21     1     0     0
SMALL
bcc


@<TRIPOS>ATOM
      1 C           -4.2160     1.7810    -1.1810 c          1 MD6       0.925600
      2 N           -3.3550     2.2210     1.0810 ns         1 MD6      -0.515900
      3 O           -5.0010     1.1500    -1.9070 o          1 MD6      -0.834300
      4 CA          -4.3360     1.4800     0.3300 c3         1 MD6      -0.058000
      5 N2          -1.5100     2.3680     4.0300 nb         1 MD6      -0.603000
      6 OXT         -3.3580     2.6170    -1.5240 o          1 MD6      -0.834300
      7 C3          -3.2430     2.1600     2.4070 c          1 MD6       0.566600
      8 O3          -3.9520     1.4520     3.1110 o          1 MD6      -0.629100
      9 C4          -2.1410     2.9800     3.0340 ca         1 MD6       0.352800
     10 C5          -0.5360     2.9860     4.6730 ca         1 MD6       0.352200
     11 C6          -0.1450     4.2810     4.3630 ca         1 MD6      -0.213300
     12 C7          -0.8010     4.9420     3.3440 ca         1 MD6      -0.210000
     13 C8          -1.8190     4.2890     2.6550 ca         1 MD6       0.049800
     14 H2          -2.7580     2.8100     0.5160 hn         1 MD6       0.348500
     15 HA2         -5.3490     1.7270     0.6620 h1         1 MD6       0.036200
     16 HA3         -4.2150     0.4040     0.4870 h1         1 MD6       0.036200
     17 HO4         -2.1850     5.7710     1.5040 ho         1 MD6       0.423000
     18 H5          -0.0480     2.4350     5.4690 h4         1 MD6       0.013100
     19 H6           0.6520     4.7630     4.9120 ha         1 MD6       0.127000
     20 H7          -0.5310     5.9590     3.0820 ha         1 MD6       0.127000
     21 O4          -2.5060     4.8740     1.6610 oh         1 MD6      -0.460100
@<TRIPOS>BOND
     1     1     3 1   
     2     1     4 1   
     3     1     6 1   
     4     2     4 1   
     5     2     7 1   
     6     2    14 1   
     7     4    15 1   
     8     4    16 1   
     9     5     9 ar  
    10     5    10 ar  
    11     7     8 2   
    12     7     9 1   
    13     9    13 ar  
    14    10    11 ar  
    15    10    18 1   
    16    11    12 ar  
    17    11    19 1   
    18    12    13 ar  
    19    12    20 1   
    20    13    21 1   
    21    17    21 1   
@<TRIPOS>SUBSTRUCTURE
     1 MD6         1 TEMP              0 ****  ****    0 ROOT
