@<TRIPOS>MOLECULE
MD7
   39    41     1     0     0
SMALL
bcc


@<TRIPOS>ATOM
      1 CAN         -6.8580    -0.9190     0.7330 cx         1 MD7      -0.090400
      2 CAO         -6.8160    -1.0310    -0.7410 cx         1 MD7      -0.090400
      3 CAW         -5.8100    -0.1440    -0.0380 cx         1 MD7      -0.163500
      4 CAS         -4.4140    -0.5620     0.0340 c2         1 MD7       0.331900
      5 OAC         -4.1980    -1.8370     0.1610 oh         1 MD7      -0.504100
      6 CAR         -3.3560     0.3340    -0.0250 ce         1 MD7      -0.328900
      7 CAD         -3.5980     1.7170    -0.1590 cg         1 MD7       0.223500
      8 NAA         -3.7500     2.8580    -0.2670 n1         1 MD7      -0.397800
      9 CAQ         -1.9840    -0.1680     0.0640 c          1 MD7       0.724300
     10 OAB         -1.7770    -1.3840     0.1950 o          1 MD7      -0.651100
     11 NAP         -0.9860     0.7330    -0.0010 ns         1 MD7      -0.442100
     12 CAT          0.3940     0.4760     0.0220 ca         1 MD7       0.059600
     13 CAK          1.2220     1.3600    -0.6670 ca         1 MD7      -0.149000
     14 CAM          2.5940     1.1910    -0.6580 ca         1 MD7      -0.098000
     15 CAJ          0.9690    -0.5770     0.7300 ca         1 MD7      -0.149000
     16 CAL          2.3450    -0.7400     0.7220 ca         1 MD7      -0.098000
     17 CAV          3.1860     0.1310     0.0300 cp         1 MD7      -0.046000
     18 CAU          4.6500    -0.0550     0.0330 cp         1 MD7      -0.032000
     19 CAH          5.2080    -1.3350     0.0270 ca         1 MD7      -0.118000
     20 CAF          6.5840    -1.5120     0.0310 ca         1 MD7      -0.128500
     21 CAE          7.4300    -0.4120     0.0380 ca         1 MD7      -0.125000
     22 CAG          6.8880     0.8670     0.0420 ca         1 MD7      -0.128500
     23 CAI          5.5120     1.0430     0.0410 ca         1 MD7      -0.118000
     24 HAN         -7.6370    -0.3250     1.1890 hc         1 MD7       0.084950
     25 HANA        -6.5230    -1.7620     1.3230 hc         1 MD7       0.084950
     26 HAO         -6.4530    -1.9500    -1.1810 hc         1 MD7       0.084950
     27 HAOA        -7.5650    -0.5130    -1.3250 hc         1 MD7       0.084950
     28 HAW         -5.9720     0.9220    -0.1260 hc         1 MD7       0.111700
     29 HOAC        -3.1940    -1.9640     0.2050 ho         1 MD7       0.513000
     30 HNAP        -1.2360     1.6880    -0.2120 hn         1 MD7       0.335500
     31 HAK          0.7890     2.1840    -1.2220 ha         1 MD7       0.145500
     32 HAM          3.2080     1.8850    -1.2180 ha         1 MD7       0.136000
     33 HAJ          0.3640    -1.2600     1.3050 ha         1 MD7       0.145500
     34 HAL          2.7670    -1.5550     1.2960 ha         1 MD7       0.136000
     35 HAH          4.5630    -2.2050    -0.0010 ha         1 MD7       0.131500
     36 HAF          6.9940    -2.5140     0.0190 ha         1 MD7       0.131000
     37 HAE          8.5040    -0.5480     0.0390 ha         1 MD7       0.131000
     38 HAG          7.5390     1.7320     0.0540 ha         1 MD7       0.131000
     39 HAI          5.1080     2.0480     0.0650 ha         1 MD7       0.131500
@<TRIPOS>BOND
     1     1     2 1   
     2     1     3 1   
     3     1    24 1   
     4     1    25 1   
     5     2     3 1   
     6     2    26 1   
     7     2    27 1   
     8     3     4 1   
     9     3    28 1   
    10     4     5 1   
    11     4     6 2   
    12     5    29 1   
    13     6     7 1   
    14     6     9 1   
    15     7     8 3   
    16     9    10 2   
    17     9    11 1   
    18    11    12 1   
    19    11    30 1   
    20    12    13 ar  
    21    12    15 ar  
    22    13    14 ar  
    23    13    31 1   
    24    14    17 ar  
    25    14    32 1   
    26    15    16 ar  
    27    15    33 1   
    28    16    17 ar  
    29    16    34 1   
    30    17    18 1   
    31    18    19 ar  
    32    18    23 ar  
    33    19    20 ar  
    34    19    35 1   
    35    20    21 ar  
    36    20    36 1   
    37    21    22 ar  
    38    21    37 1   
    39    22    23 ar  
    40    22    38 1   
    41    23    39 1   
@<TRIPOS>SUBSTRUCTURE
     1 MD7         1 TEMP              0 ****  ****    0 ROOT
