@<TRIPOS>MOLECULE
MD7
   39    41     1     0     0
SMALL
No Charge or Current Charge


@<TRIPOS>ATOM
      1 CAN         -6.6340     0.3570     0.6570 cx         1 MD7      -0.090400
      2 CAO         -7.1000    -1.0250     0.2690 cx         1 MD7      -0.090400
      3 CAW         -5.9450    -0.3810    -0.4730 cx         1 MD7      -0.163500
      4 CAS         -4.5450    -0.8890    -0.3130 c2         1 MD7       0.331900
      5 OAC         -4.4240    -2.2210    -0.2550 oh         1 MD7      -0.543100
      6 CAR         -3.4650    -0.0700    -0.2450 ce         1 MD7      -0.328900
      7 CAD         -3.6200     1.3480    -0.3410 cg         1 MD7       0.312700
      8 NAA         -3.6960     2.5080    -0.4210 n1         1 MD7      -0.487000
      9 CAQ         -2.0700    -0.6060    -0.1100 c          1 MD7       0.657300
     10 OAB         -1.8920    -1.8110     0.0440 o          1 MD7      -0.651100
     11 NAP         -1.0310     0.3180    -0.2070 ns         1 MD7      -0.116000
     12 CAT          0.3840     0.1870    -0.1250 ca         1 MD7      -0.033000
     13 CAK          1.1600     1.3320    -0.3810 ca         1 MD7      -0.131000
     14 CAM          2.5630     1.2790    -0.3150 ca         1 MD7      -0.080000
     15 CAJ          1.0410    -1.0170     0.2070 ca         1 MD7      -0.131000
     16 CAL          2.4450    -1.0680     0.2710 ca         1 MD7      -0.080000
     17 CAV          3.2370     0.0770     0.0110 cp         1 MD7      -0.046000
     18 CAU          4.7330     0.0190     0.0810 cp         1 MD7      -0.032000
     19 CAH          5.4410    -1.1450    -0.3140 ca         1 MD7      -0.100000
     20 CAF          6.8440    -1.2000    -0.2490 ca         1 MD7      -0.110500
     21 CAE          7.5700    -0.0910     0.2140 ca         1 MD7      -0.107000
     22 CAG          6.8920     1.0720     0.6120 ca         1 MD7      -0.110500
     23 CAI          5.4890     1.1260     0.5450 ca         1 MD7      -0.100000
     24 HAN         -7.2710     1.2000     0.3980 hc         1 MD7       0.084950
     25 HANA        -6.1020     0.4640     1.6000 hc         1 MD7       0.084950
     26 HAO         -6.8850    -1.8390     0.9580 hc         1 MD7       0.084950
     27 HAOA        -8.0510    -1.1130    -0.2500 hc         1 MD7       0.084950
     28 HAW         -6.1610    -0.0460    -1.4850 hc         1 MD7       0.111700
     29 HOAC        -3.4500    -2.3740    -0.1240 ho         1 MD7       0.552000
     30 HNAP        -1.3410     1.2680    -0.3610 hn         1 MD7       0.169000
     31 HAK          0.6770     2.2720    -0.6380 ha         1 MD7       0.127500
     32 HAM          3.1330     2.1790    -0.5340 ha         1 MD7       0.118000
     33 HAJ          0.4870    -1.9240     0.4270 ha         1 MD7       0.127500
     34 HAL          2.9220    -2.0070     0.5430 ha         1 MD7       0.118000
     35 HAH          4.8990    -2.0100    -0.6890 ha         1 MD7       0.113500
     36 HAF          7.3670    -2.1010    -0.5610 ha         1 MD7       0.113000
     37 HAE          8.6560    -0.1340     0.2650 ha         1 MD7       0.113000
     38 HAG          7.4520     1.9310     0.9740 ha         1 MD7       0.113000
     39 HAI          4.9830     2.0310     0.8710 ha         1 MD7       0.113500
@<TRIPOS>BOND
     1     1     2 1   
     2     1     3 1   
     3     1    24 1   
     4     1    25 1   
     5     2     3 1   
     6     2    26 1   
     7     2    27 1   
     8     3     4 1   
     9     3    28 1   
    10     4     5 1   
    11     4     6 2   
    12     5    29 1   
    13     6     7 1   
    14     6     9 1   
    15     7     8 3   
    16     9    10 2   
    17     9    11 1   
    18    11    12 1   
    19    11    30 1   
    20    12    13 ar  
    21    12    15 ar  
    22    13    14 ar  
    23    13    31 1   
    24    14    17 ar  
    25    14    32 1   
    26    15    16 ar  
    27    15    33 1   
    28    16    17 ar  
    29    16    34 1   
    30    17    18 1   
    31    18    19 ar  
    32    18    23 ar  
    33    19    20 ar  
    34    19    35 1   
    35    20    21 ar  
    36    20    36 1   
    37    21    22 ar  
    38    21    37 1   
    39    22    23 ar  
    40    22    38 1   
    41    23    39 1   
@<TRIPOS>SUBSTRUCTURE
     1 MD7         1 TEMP              0 ****  ****    0 ROOT
