@<TRIPOS>MOLECULE
MD8
   52    54     1     0     0
SMALL
No Charge or Current Charge


@<TRIPOS>ATOM
      1 N           75.1410   -16.8440    93.1070 n          1 MD8      -0.388800
      2 C           79.1520   -16.6340    95.8840 ca         1 MD8      -0.111000
      3 O           73.3480   -17.0550    94.5190 o          1 MD8      -0.620100
      4 C1          77.9240   -16.0050    96.1480 ca         1 MD8      -0.112000
      5 C10         77.0580   -15.9640    92.0900 c5         1 MD8      -0.096400
      6 C11         75.8220   -15.2430    91.5050 c5         1 MD8      -0.084400
      7 C12         74.7430   -15.4960    92.6030 c5         1 MD8       0.028700
      8 C13         73.3330   -15.4160    91.9310 c          1 MD8       0.604100
      9 C14         71.6130   -13.6510    91.4240 c3         1 MD8       0.155300
     10 C15         70.6200   -13.4270    92.5530 ca         1 MD8      -0.158300
     11 C16         70.3820   -12.1280    93.0450 ca         1 MD8      -0.050000
     12 C17         69.4640   -11.9260    94.0920 ca         1 MD8      -0.180000
     13 C18         68.7840   -13.0200    94.6500 ca         1 MD8       0.142100
     14 C19         69.0200   -14.3140    94.1650 ca         1 MD8      -0.180000
     15 C2          76.7380   -16.7600    96.1720 ca         1 MD8      -0.106500
     16 C20         69.9360   -14.5200    93.1190 ca         1 MD8      -0.050000
     17 C3          76.7730   -18.1470    95.9280 ca         1 MD8      -0.082300
     18 C4          78.0080   -18.7730    95.6700 ca         1 MD8      -0.106500
     19 C5          79.1940   -18.0180    95.6470 ca         1 MD8      -0.112000
     20 C6          75.4840   -18.9590    95.9130 c3         1 MD8      -0.070100
     21 C7          74.8220   -19.0060    94.5100 c3         1 MD8       0.097500
     22 C8          74.3690   -17.5590    94.0570 c          1 MD8       0.620100
     23 C9          76.4420   -17.3000    92.5700 c5         1 MD8       0.109000
     24 N1          72.9020   -14.1050    91.9410 ns         1 MD8      -0.493900
     25 N2          73.7380   -20.0500    94.5020 n8         1 MD8      -0.981200
     26 O1          72.6800   -16.3360    91.4520 o          1 MD8      -0.594100
     27 O2          67.8940   -12.8310    95.6640 oh         1 MD8      -0.535100
     28 H2          77.8900   -14.9340    96.3310 ha         1 MD8       0.113000
     29 H3          77.8560   -16.1110    91.3540 hc         1 MD8       0.056700
     30 H4          77.4850   -15.4040    92.9310 hc         1 MD8       0.056700
     31 H5          75.9980   -14.1760    91.3270 hc         1 MD8       0.061700
     32 H6          75.5330   -15.6900    90.5450 hc         1 MD8       0.061700
     33 H7          74.8090   -14.7580    93.4140 h1         1 MD8       0.060700
     34 H8          71.7690   -12.7160    90.8710 h1         1 MD8       0.059200
     35 H9          71.2110   -14.3890    90.7160 h1         1 MD8       0.059200
     36 H10         70.9070   -11.2760    92.6180 ha         1 MD8       0.121500
     37 H11         69.2890   -10.9190    94.4620 ha         1 MD8       0.119500
     38 H12         68.4940   -15.1610    94.5990 ha         1 MD8       0.119500
     39 H13         75.7910   -16.2620    96.3720 ha         1 MD8       0.116000
     40 H14         70.1160   -15.5280    92.7500 ha         1 MD8       0.121500
     41 H15         78.0500   -19.8430    95.4760 ha         1 MD8       0.116000
     42 H16         80.1450   -18.5060    95.4430 ha         1 MD8       0.113000
     43 H17         74.7700   -18.5460    96.6370 hc         1 MD8       0.057200
     44 H18         75.6970   -19.9820    96.2490 hc         1 MD8       0.057200
     45 H19         75.5820   -19.3580    93.8010 h1         1 MD8       0.070700
     46 H20         76.2930   -18.0000    91.7370 h1         1 MD8       0.056700
     47 H21         77.0790   -17.7810    93.3210 h1         1 MD8       0.056700
     48 H22         73.5160   -13.4210    92.3650 hn         1 MD8       0.311500
     49 H23         74.0780   -20.9050    94.9590 hn         1 MD8       0.406500
     50 H24         72.9700   -19.7360    95.1100 hn         1 MD8       0.406500
     51 H26         67.8580   -11.8720    95.8690 ho         1 MD8       0.461000
     52 H1          80.0690   -16.0500    95.8640 ha         1 MD8       0.113000
@<TRIPOS>BOND
     1     1     7 1   
     2     1    22 1   
     3     1    23 1   
     4     2     4 ar  
     5     2    19 ar  
     6     2    52 1   
     7     3    22 2   
     8     4    15 ar  
     9     4    28 1   
    10     5     6 1   
    11     5    23 1   
    12     5    29 1   
    13     5    30 1   
    14     6     7 1   
    15     6    31 1   
    16     6    32 1   
    17     7     8 1   
    18     7    33 1   
    19     8    24 1   
    20     8    26 2   
    21     9    10 1   
    22     9    24 1   
    23     9    34 1   
    24     9    35 1   
    25    10    11 ar  
    26    10    16 ar  
    27    11    12 ar  
    28    11    36 1   
    29    12    13 ar  
    30    12    37 1   
    31    13    14 ar  
    32    13    27 1   
    33    14    16 ar  
    34    14    38 1   
    35    15    17 ar  
    36    15    39 1   
    37    16    40 1   
    38    17    18 ar  
    39    17    20 1   
    40    18    19 ar  
    41    18    41 1   
    42    19    42 1   
    43    20    21 1   
    44    20    43 1   
    45    20    44 1   
    46    21    22 1   
    47    21    25 1   
    48    21    45 1   
    49    23    46 1   
    50    23    47 1   
    51    24    48 1   
    52    25    49 1   
    53    25    50 1   
    54    27    51 1   
@<TRIPOS>SUBSTRUCTURE
     1 MD8         1 TEMP              0 ****  ****    0 ROOT
