@<TRIPOS>MOLECULE
MD8
   52    54     1     0     0
SMALL
abcg2


@<TRIPOS>ATOM
      1 N           75.1440   -16.7420    93.0640 n          1 MD8      -0.388800
      2 C           79.1950   -16.8320    95.5220 ca         1 MD8      -0.111000
      3 O           73.4960   -16.3310    94.5140 o          1 MD8      -0.620100
      4 C1          78.1380   -15.9580    95.7370 ca         1 MD8      -0.112000
      5 C10         77.1290   -16.4170    91.8980 c5         1 MD8      -0.096400
      6 C11         76.1480   -15.3320    91.4690 c5         1 MD8      -0.084400
      7 C12         75.0560   -15.3880    92.5480 c5         1 MD8       0.028700
      8 C13         73.6790   -15.1180    91.9560 c          1 MD8       0.604100
      9 C14         71.9270   -13.4090    91.6980 c3         1 MD8       0.155300
     10 C15         70.8280   -13.5490    92.7200 ca         1 MD8      -0.158300
     11 C16         70.2580   -12.4350    93.3220 ca         1 MD8      -0.050000
     12 C17         69.2480   -12.5580    94.2670 ca         1 MD8      -0.180000
     13 C18         68.7900   -13.8200    94.6290 ca         1 MD8       0.142100
     14 C19         69.3550   -14.9490    94.0380 ca         1 MD8      -0.180000
     15 C2          76.8530   -16.4490    95.9270 ca         1 MD8      -0.106500
     16 C20         70.3610   -14.8080    93.0990 ca         1 MD8      -0.050000
     17 C3          76.6010   -17.8200    95.9040 ca         1 MD8      -0.082300
     18 C4          77.6720   -18.6870    95.6960 ca         1 MD8      -0.106500
     19 C5          78.9580   -18.2010    95.5050 ca         1 MD8      -0.112000
     20 C6          75.2030   -18.3550    96.0340 c3         1 MD8      -0.070100
     21 C7          74.4760   -18.4940    94.6780 c3         1 MD8       0.097500
     22 C8          74.3300   -17.1080    94.0630 c          1 MD8       0.620100
     23 C9          76.2140   -17.5070    92.4320 c5         1 MD8       0.109000
     24 N1          73.2110   -13.8810    92.1740 ns         1 MD8      -0.493900
     25 N2          73.1500   -19.0750    94.7760 n8         1 MD8      -0.981200
     26 O1          73.1100   -15.9570    91.2750 o          1 MD8      -0.594100
     27 O2          67.8100   -14.0090    95.5370 oh         1 MD8      -0.535100
     28 H2          78.3120   -14.8890    95.7570 ha         1 MD8       0.113000
     29 H3          77.7580   -16.7680    91.0810 hc         1 MD8       0.056700
     30 H4          77.7780   -16.0580    92.6990 hc         1 MD8       0.056700
     31 H5          76.5940   -14.3420    91.3990 hc         1 MD8       0.061700
     32 H6          75.7280   -15.5810    90.4920 hc         1 MD8       0.061700
     33 H7          75.2740   -14.6710    93.3480 h1         1 MD8       0.060700
     34 H8          72.0360   -12.3630    91.4090 h1         1 MD8       0.059200
     35 H9          71.6790   -13.9620    90.7920 h1         1 MD8       0.059200
     36 H10         70.6040   -11.4430    93.0530 ha         1 MD8       0.121500
     37 H11         68.8210   -11.6700    94.7190 ha         1 MD8       0.119500
     38 H12         69.0010   -15.9350    94.3150 ha         1 MD8       0.119500
     39 H13         76.0370   -15.7560    96.0960 ha         1 MD8       0.116000
     40 H14         70.7900   -15.6960    92.6520 ha         1 MD8       0.121500
     41 H15         77.4980   -19.7570    95.6820 ha         1 MD8       0.116000
     42 H16         79.7760   -18.8920    95.3460 ha         1 MD8       0.113000
     43 H17         74.6050   -17.7090    96.6830 hc         1 MD8       0.057200
     44 H18         75.2260   -19.3440    96.4980 hc         1 MD8       0.057200
     45 H19         75.0700   -19.1470    94.0360 h1         1 MD8       0.070700
     46 H20         75.8180   -18.1240    91.6210 h1         1 MD8       0.056700
     47 H21         76.7230   -18.1570    93.1400 h1         1 MD8       0.056700
     48 H22         73.6990   -13.2940    92.8310 hn         1 MD8       0.311500
     49 H23         73.2110   -19.9680    95.2480 hn         1 MD8       0.406500
     50 H24         72.5640   -18.4840    95.3540 hn         1 MD8       0.406500
     51 H26         67.4990   -13.1620    95.8750 ho         1 MD8       0.461000
     52 H1          80.1970   -16.4510    95.3730 ha         1 MD8       0.113000
@<TRIPOS>BOND
     1     1     7 1   
     2     1    22 1   
     3     1    23 1   
     4     2     4 ar  
     5     2    19 ar  
     6     2    52 1   
     7     3    22 2   
     8     4    15 ar  
     9     4    28 1   
    10     5     6 1   
    11     5    23 1   
    12     5    29 1   
    13     5    30 1   
    14     6     7 1   
    15     6    31 1   
    16     6    32 1   
    17     7     8 1   
    18     7    33 1   
    19     8    24 1   
    20     8    26 2   
    21     9    10 1   
    22     9    24 1   
    23     9    34 1   
    24     9    35 1   
    25    10    11 ar  
    26    10    16 ar  
    27    11    12 ar  
    28    11    36 1   
    29    12    13 ar  
    30    12    37 1   
    31    13    14 ar  
    32    13    27 1   
    33    14    16 ar  
    34    14    38 1   
    35    15    17 ar  
    36    15    39 1   
    37    16    40 1   
    38    17    18 ar  
    39    17    20 1   
    40    18    19 ar  
    41    18    41 1   
    42    19    42 1   
    43    20    21 1   
    44    20    43 1   
    45    20    44 1   
    46    21    22 1   
    47    21    25 1   
    48    21    45 1   
    49    23    46 1   
    50    23    47 1   
    51    24    48 1   
    52    25    49 1   
    53    25    50 1   
    54    27    51 1   
@<TRIPOS>SUBSTRUCTURE
     1 MD8         1 TEMP              0 ****  ****    0 ROOT
