@<TRIPOS>MOLECULE
MDA
   25    25     1     0     0
SMALL
abcg2


@<TRIPOS>ATOM
      1 C1           6.3210     6.3770    16.4710 c6         1 MDA       0.403300
      2 C2           6.2290     7.6960    15.7300 c6         1 MDA      -0.136400
      3 C3           6.4630     7.5050    14.2280 c6         1 MDA       0.149000
      4 C4           7.7860     6.7420    14.0410 c6         1 MDA       0.155300
      5 C5           7.8220     5.4600    14.8820 c6         1 MDA       0.191300
      6 C6           9.1680     4.7650    14.8170 c3         1 MDA      -0.085100
      7 C7           6.5140     8.8600    13.5290 c3         1 MDA      -0.123100
      8 O1           6.2020     6.6140    17.8280 oh         1 MDA      -0.644000
      9 O5           7.5780     5.7800    16.2380 os         1 MDA      -0.500000
     10 O3           5.4430     6.6970    13.6670 oh         1 MDA      -0.644000
     11 O4           8.0160     6.3840    12.7000 oh         1 MDA      -0.699000
     12 H1           5.5330     5.6920    16.1160 h2         1 MDA       0.026700
     13 H2           6.9750     8.3850    16.1370 hc         1 MDA       0.065700
     14 H22          5.2470     8.1510    15.8930 hc         1 MDA       0.065700
     15 H4           8.5870     7.3950    14.4190 h1         1 MDA       0.042700
     16 H5           7.0460     4.7710    14.5140 h1         1 MDA       0.060700
     17 H61          9.1750     3.8830    15.4580 hc         1 MDA       0.047033
     18 H62          9.3880     4.4390    13.8030 hc         1 MDA       0.047033
     19 H63          9.9700     5.4310    15.1430 hc         1 MDA       0.047033
     20 H3'1         6.6410     8.7510    12.4510 hc         1 MDA       0.044367
     21 H3'2         5.5880     9.4150    13.6970 hc         1 MDA       0.044367
     22 H3'3         7.3350     9.4700    13.9110 hc         1 MDA       0.044367
     23 HO1          6.0530     5.7780    18.2840 ho         1 MDA       0.458000
     24 HO3          4.5990     7.1400    13.8070 ho         1 MDA       0.439000
     25 HO4          8.3480     7.1500    12.2250 ho         1 MDA       0.502000
@<TRIPOS>BOND
     1     1     2 1   
     2     1     8 1   
     3     1     9 1   
     4     1    12 1   
     5     2     3 1   
     6     2    13 1   
     7     2    14 1   
     8     3     4 1   
     9     3     7 1   
    10     3    10 1   
    11     4     5 1   
    12     4    11 1   
    13     4    15 1   
    14     5     6 1   
    15     5     9 1   
    16     5    16 1   
    17     6    17 1   
    18     6    18 1   
    19     6    19 1   
    20     7    20 1   
    21     7    21 1   
    22     7    22 1   
    23     8    23 1   
    24    10    24 1   
    25    11    25 1   
@<TRIPOS>SUBSTRUCTURE
     1 MDA         1 TEMP              0 ****  ****    0 ROOT
