@<TRIPOS>MOLECULE
MDA
   25    25     1     0     0
SMALL
No Charge or Current Charge


@<TRIPOS>ATOM
      1 C1           6.1730     6.2920    16.3950 c6         1 MDA       0.403300
      2 C2           6.1460     7.6750    15.7110 c6         1 MDA      -0.136400
      3 C3           6.5370     7.5710    14.2120 c6         1 MDA       0.149000
      4 C4           7.8860     6.7790    14.0660 c6         1 MDA       0.155300
      5 C5           7.8290     5.4450    14.8850 c6         1 MDA       0.191300
      6 C6           9.1890     4.7030    14.9250 c3         1 MDA      -0.085100
      7 C7           6.6430     8.9930    13.5910 c3         1 MDA      -0.123100
      8 O1           5.9930     6.4240    17.7840 oh         1 MDA      -0.644000
      9 O5           7.4670     5.7110    16.2580 os         1 MDA      -0.500000
     10 O3           5.5040     6.8780    13.4970 oh         1 MDA      -0.644000
     11 O4           8.1420     6.5220    12.6720 oh         1 MDA      -0.699000
     12 H1           5.4080     5.6250    15.9700 h2         1 MDA       0.026700
     13 H2           6.8450     8.3460    16.2290 hc         1 MDA       0.065700
     14 H22          5.1490     8.1210    15.8200 hc         1 MDA       0.065700
     15 H4           8.6960     7.3950    14.4840 h1         1 MDA       0.042700
     16 H5           7.0780     4.7710    14.4460 h1         1 MDA       0.060700
     17 H61          9.1210     3.7920    15.5310 hc         1 MDA       0.047033
     18 H62          9.5070     4.4060    13.9190 hc         1 MDA       0.047033
     19 H63          9.9750     5.3370    15.3520 hc         1 MDA       0.047033
     20 H3'1         6.8550     8.9540    12.5160 hc         1 MDA       0.044367
     21 H3'2         5.7120     9.5590    13.7220 hc         1 MDA       0.044367
     22 H3'3         7.4460     9.5710    14.0630 hc         1 MDA       0.044367
     23 HO1          6.7790     5.9630    18.1430 ho         1 MDA       0.458000
     24 HO3          4.7060     7.4510    13.5180 ho         1 MDA       0.439000
     25 HO4          7.2390     6.4470    12.2800 ho         1 MDA       0.502000
@<TRIPOS>BOND
     1     1     2 1   
     2     1     8 1   
     3     1     9 1   
     4     1    12 1   
     5     2     3 1   
     6     2    13 1   
     7     2    14 1   
     8     3     4 1   
     9     3     7 1   
    10     3    10 1   
    11     4     5 1   
    12     4    11 1   
    13     4    15 1   
    14     5     6 1   
    15     5     9 1   
    16     5    16 1   
    17     6    17 1   
    18     6    18 1   
    19     6    19 1   
    20     7    20 1   
    21     7    21 1   
    22     7    22 1   
    23     8    23 1   
    24    10    24 1   
    25    11    25 1   
@<TRIPOS>SUBSTRUCTURE
     1 MDA         1 TEMP              0 ****  ****    0 ROOT
