@<TRIPOS>MOLECULE
MDB
   65    66     1     0     0
SMALL
No Charge or Current Charge


@<TRIPOS>ATOM
      1 C           -2.2330     0.3870    -1.1100 c          1 MDB       0.597100
      2 N            0.2290     0.6560    -0.8860 ns         1 MDB      -0.520900
      3 O           -2.8490    -0.0110    -2.0920 o          1 MDB      -0.597100
      4 CA          -1.0200     1.3860    -1.2320 c3         1 MDB       0.054700
      5 CB          -0.8810     2.2030    -2.5780 c3         1 MDB      -0.043000
      6 CAA         -2.1950     2.9780    -2.8860 c3         1 MDB      -0.089767
      7 CAC          0.2480     3.2630    -2.4220 c3         1 MDB      -0.089767
      8 CAD         -0.5130     1.2950    -3.7880 c3         1 MDB      -0.089767
      9 CAG          1.1810     1.0870     0.0080 c          1 MDB       0.667100
     10 OAH          1.0530     2.1170     0.6540 o          1 MDB      -0.667100
     11 NAI          2.2550     0.2180     0.0900 ns         1 MDB      -0.158000
     12 CAJ          3.4540     0.2360     0.8600 ca         1 MDB      -0.053000
     13 CAK          3.8120     1.3130     1.7030 ca         1 MDB      -0.076000
     14 CAL          5.0110     1.2720     2.4350 ca         1 MDB      -0.129000
     15 CAM          5.8630     0.1630     2.3350 ca         1 MDB      -0.085000
     16 CAN          5.5200    -0.9110     1.4990 ca         1 MDB      -0.180000
     17 CAP          4.3170    -0.8790     0.7580 ca         1 MDB       0.107100
     18 OAP          3.9450    -1.9190    -0.0760 os         1 MDB      -0.355100
     19 CAQ          4.7490    -3.1000    -0.2450 c3         1 MDB       0.150900
     20 NAS         -2.5260    -0.1630     0.1710 n          1 MDB      -0.389800
     21 CAT         -2.1300     0.5260     1.4400 c3         1 MDB       0.011000
     22 CAU         -2.7830     1.9050     1.6910 c          1 MDB       0.576100
     23 OAV         -3.5870     2.4140     0.9190 o          1 MDB      -0.562100
     24 NAW         -2.3940     2.5260     2.8730 ns         1 MDB      -0.387400
     25 OAX         -2.7200     3.9160     3.1260 oh         1 MDB      -0.427100
     26 CAY         -3.4710    -1.2990     0.3120 c3         1 MDB       0.104000
     27 CAZ         -2.7570    -2.6470     0.5630 c5         1 MDB      -0.091700
     28 CBA         -3.7060    -3.8690     0.6320 c5         1 MDB      -0.074400
     29 CBB         -2.6970    -5.0510     0.6880 c5         1 MDB      -0.079400
     30 CBC         -1.4650    -4.5620    -0.1430 c5         1 MDB      -0.079400
     31 CBD         -1.8310    -3.1170    -0.5880 c5         1 MDB      -0.074400
     32 HN           0.4180    -0.2170    -1.3640 hn         1 MDB       0.324500
     33 HA          -1.1940     2.1360    -0.4530 h1         1 MDB       0.081700
     34 HAA         -2.4930     3.5970    -2.0310 hc         1 MDB       0.041256
     35 HAAA        -2.0640     3.6410    -3.7500 hc         1 MDB       0.041256
     36 HAAB        -3.0250     2.3040    -3.1220 hc         1 MDB       0.041256
     37 HAC          1.2280     2.7900    -2.2850 hc         1 MDB       0.041256
     38 HACA         0.3170     3.9000    -3.3130 hc         1 MDB       0.041256
     39 HACB         0.0610     3.9140    -1.5590 hc         1 MDB       0.041256
     40 HAD         -1.2940     0.5580    -4.0030 hc         1 MDB       0.041256
     41 HADA        -0.3780     1.8970    -4.6950 hc         1 MDB       0.041256
     42 HADB         0.4230     0.7530    -3.6100 hc         1 MDB       0.041256
     43 HNAI         2.1810    -0.5950    -0.5070 hn         1 MDB       0.161000
     44 HAK          3.1810     2.1900     1.8020 ha         1 MDB       0.129000
     45 HAL          5.2790     2.1050     3.0820 ha         1 MDB       0.118000
     46 HAM          6.7900     0.1370     2.9050 ha         1 MDB       0.115000
     47 HAN          6.1990    -1.7570     1.4390 ha         1 MDB       0.118000
     48 HAQ          4.8790    -3.6240     0.7110 h1         1 MDB       0.042367
     49 HAQA         4.2670    -3.7910    -0.9470 h1         1 MDB       0.042367
     50 HAQB         5.7390    -2.8450    -0.6450 h1         1 MDB       0.042367
     51 HAT         -2.3920    -0.1100     2.2950 h1         1 MDB       0.075700
     52 HATA        -1.0440     0.6520     1.4730 h1         1 MDB       0.075700
     53 HNAW        -1.6150     2.1400     3.4090 hn         1 MDB       0.360500
     54 HOAX        -3.1110     3.9030     4.0320 ho         1 MDB       0.445000
     55 HAY         -4.1480    -1.0980     1.1530 h1         1 MDB       0.067700
     56 HAYA        -4.1040    -1.3900    -0.5800 h1         1 MDB       0.067700
     57 HAZ         -2.1930    -2.5400     1.4980 hc         1 MDB       0.041700
     58 HBA         -4.3620    -3.8430     1.5100 hc         1 MDB       0.046950
     59 HBAA        -4.3500    -3.9340    -0.2540 hc         1 MDB       0.046950
     60 HBB         -2.4030    -5.2660     1.7220 hc         1 MDB       0.040450
     61 HBBA        -3.1300    -5.9720     0.2830 hc         1 MDB       0.040450
     62 HBC         -0.5590    -4.5660     0.4730 hc         1 MDB       0.040450
     63 HBCA        -1.2650    -5.2090    -1.0050 hc         1 MDB       0.040450
     64 HBD         -2.3520    -3.1150    -1.5530 hc         1 MDB       0.046950
     65 HBDA        -0.9430    -2.4840    -0.6980 hc         1 MDB       0.046950
@<TRIPOS>BOND
     1     1     3 2   
     2     1     4 1   
     3     1    20 1   
     4     2     4 1   
     5     2     9 1   
     6     2    32 1   
     7     4     5 1   
     8     4    33 1   
     9     5     6 1   
    10     5     7 1   
    11     5     8 1   
    12     6    34 1   
    13     6    35 1   
    14     6    36 1   
    15     7    37 1   
    16     7    38 1   
    17     7    39 1   
    18     8    40 1   
    19     8    41 1   
    20     8    42 1   
    21     9    10 2   
    22     9    11 1   
    23    11    12 1   
    24    11    43 1   
    25    12    13 ar  
    26    12    17 ar  
    27    13    14 ar  
    28    13    44 1   
    29    14    15 ar  
    30    14    45 1   
    31    15    16 ar  
    32    15    46 1   
    33    16    17 ar  
    34    16    47 1   
    35    17    18 1   
    36    18    19 1   
    37    19    48 1   
    38    19    49 1   
    39    19    50 1   
    40    20    21 1   
    41    20    26 1   
    42    21    22 1   
    43    21    51 1   
    44    21    52 1   
    45    22    23 2   
    46    22    24 1   
    47    24    25 1   
    48    24    53 1   
    49    25    54 1   
    50    26    27 1   
    51    26    55 1   
    52    26    56 1   
    53    27    28 1   
    54    27    31 1   
    55    27    57 1   
    56    28    29 1   
    57    28    58 1   
    58    28    59 1   
    59    29    30 1   
    60    29    60 1   
    61    29    61 1   
    62    30    31 1   
    63    30    62 1   
    64    30    63 1   
    65    31    64 1   
    66    31    65 1   
@<TRIPOS>SUBSTRUCTURE
     1 MDB         1 TEMP              0 ****  ****    0 ROOT
