@<TRIPOS>MOLECULE
MDB
   65    66     1     0     0
SMALL
abcg2


@<TRIPOS>ATOM
      1 C           -1.8600    -0.1120    -1.1450 c          1 MDB       0.597100
      2 N            0.5290     0.1480    -1.0200 ns         1 MDB      -0.520900
      3 O           -2.1160    -0.8170    -2.1100 o          1 MDB      -0.597100
      4 CA          -0.6970     0.8880    -1.2030 c3         1 MDB       0.054700
      5 CB          -0.6950     1.7910    -2.4640 c3         1 MDB      -0.043000
      6 CAA         -2.0710     2.4460    -2.6000 c3         1 MDB      -0.089767
      7 CAC          0.3540     2.8830    -2.2340 c3         1 MDB      -0.089767
      8 CAD         -0.3400     1.0510    -3.7550 c3         1 MDB      -0.089767
      9 CAG          1.3860     0.3750     0.0090 c          1 MDB       0.667100
     10 OAH          1.1810     1.2050     0.8870 o          1 MDB      -0.667100
     11 NAI          2.4990    -0.4180    -0.0140 ns         1 MDB      -0.158000
     12 CAJ          3.5330    -0.3410     0.9300 ca         1 MDB      -0.053000
     13 CAK          3.2830    -0.3500     2.2950 ca         1 MDB      -0.076000
     14 CAL          4.3280    -0.2850     3.2080 ca         1 MDB      -0.129000
     15 CAM          5.6350    -0.2370     2.7530 ca         1 MDB      -0.085000
     16 CAN          5.9050    -0.2490     1.3890 ca         1 MDB      -0.180000
     17 CAP          4.8610    -0.2910     0.4720 ca         1 MDB       0.107100
     18 OAP          5.0190    -0.2950    -0.8650 os         1 MDB      -0.355100
     19 CAQ          6.3330    -0.3010    -1.3900 c3         1 MDB       0.150900
     20 NAS         -2.5590    -0.1940     0.0110 n          1 MDB      -0.389800
     21 CAT         -2.1630     0.4760     1.2300 c3         1 MDB       0.011000
     22 CAU         -2.5790     1.9410     1.2600 c          1 MDB       0.576100
     23 OAV         -3.6660     2.3210     0.8740 o          1 MDB      -0.562100
     24 NAW         -1.6410     2.7340     1.8090 ns         1 MDB      -0.387400
     25 OAX         -1.8250     4.0830     1.8270 oh         1 MDB      -0.427100
     26 CAY         -3.7030    -1.0930     0.1130 c3         1 MDB       0.104000
     27 CAZ         -3.3780    -2.4210     0.7800 c5         1 MDB      -0.091700
     28 CBA         -4.6180    -3.3000     0.9690 c5         1 MDB      -0.074400
     29 CBB         -4.0760    -4.7330     1.1550 c5         1 MDB      -0.079400
     30 CBC         -2.5860    -4.6750     0.7520 c5         1 MDB      -0.079400
     31 CBD         -2.4240    -3.3410     0.0230 c5         1 MDB      -0.074400
     32 HN           0.7330    -0.5830    -1.6840 hn         1 MDB       0.324500
     33 HA          -0.7560     1.5800    -0.3680 h1         1 MDB       0.081700
     34 HAA         -2.3610     2.9730    -1.6880 hc         1 MDB       0.041256
     35 HAAA        -2.0610     3.1780    -3.4090 hc         1 MDB       0.041256
     36 HAAB        -2.8500     1.7180    -2.8270 hc         1 MDB       0.041256
     37 HAC          1.3580     2.4650    -2.1460 hc         1 MDB       0.041256
     38 HACA         0.3620     3.5780    -3.0750 hc         1 MDB       0.041256
     39 HACB         0.1490     3.4590    -1.3290 hc         1 MDB       0.041256
     40 HAD         -1.0700     0.2880    -4.0110 hc         1 MDB       0.041256
     41 HADA        -0.2940     1.7640    -4.5800 hc         1 MDB       0.041256
     42 HADB         0.6430     0.5790    -3.6940 hc         1 MDB       0.041256
     43 HNAI         2.6960    -0.9340    -0.8580 hn         1 MDB       0.161000
     44 HAK          2.2640    -0.4170     2.6480 ha         1 MDB       0.129000
     45 HAL          4.1160    -0.2860     4.2690 ha         1 MDB       0.118000
     46 HAM          6.4570    -0.1950     3.4550 ha         1 MDB       0.115000
     47 HAN          6.9340    -0.2140     1.0560 ha         1 MDB       0.118000
     48 HAQ          6.8930    -1.1840    -1.0720 h1         1 MDB       0.042367
     49 HAQA         6.2330    -0.3170    -2.4720 h1         1 MDB       0.042367
     50 HAQB         6.8890     0.5940    -1.1000 h1         1 MDB       0.042367
     51 HAT         -2.6740    -0.0090     2.0630 h1         1 MDB       0.075700
     52 HATA        -1.1010     0.3430     1.4340 h1         1 MDB       0.075700
     53 HNAW        -0.6760     2.4380     1.9000 hn         1 MDB       0.360500
     54 HOAX        -2.1140     4.3030     2.7220 ho         1 MDB       0.445000
     55 HAY         -4.4750    -0.5720     0.6830 h1         1 MDB       0.067700
     56 HAYA        -4.1060    -1.2640    -0.8840 h1         1 MDB       0.067700
     57 HAZ         -2.9450    -2.2270     1.7700 hc         1 MDB       0.041700
     58 HBA         -5.2370    -2.9680     1.8040 hc         1 MDB       0.046950
     59 HBAA        -5.2410    -3.2440     0.0710 hc         1 MDB       0.046950
     60 HBB         -4.1900    -5.0720     2.1850 hc         1 MDB       0.040450
     61 HBBA        -4.6270    -5.4390     0.5330 hc         1 MDB       0.040450
     62 HBC         -1.9550    -4.6830     1.6430 hc         1 MDB       0.040450
     63 HBCA        -2.2820    -5.5270     0.1430 hc         1 MDB       0.040450
     64 HBD         -2.7490    -3.4330    -1.0180 hc         1 MDB       0.046950
     65 HBDA        -1.3920    -2.9840     0.0130 hc         1 MDB       0.046950
@<TRIPOS>BOND
     1     1     3 2   
     2     1     4 1   
     3     1    20 1   
     4     2     4 1   
     5     2     9 1   
     6     2    32 1   
     7     4     5 1   
     8     4    33 1   
     9     5     6 1   
    10     5     7 1   
    11     5     8 1   
    12     6    34 1   
    13     6    35 1   
    14     6    36 1   
    15     7    37 1   
    16     7    38 1   
    17     7    39 1   
    18     8    40 1   
    19     8    41 1   
    20     8    42 1   
    21     9    10 2   
    22     9    11 1   
    23    11    12 1   
    24    11    43 1   
    25    12    13 ar  
    26    12    17 ar  
    27    13    14 ar  
    28    13    44 1   
    29    14    15 ar  
    30    14    45 1   
    31    15    16 ar  
    32    15    46 1   
    33    16    17 ar  
    34    16    47 1   
    35    17    18 1   
    36    18    19 1   
    37    19    48 1   
    38    19    49 1   
    39    19    50 1   
    40    20    21 1   
    41    20    26 1   
    42    21    22 1   
    43    21    51 1   
    44    21    52 1   
    45    22    23 2   
    46    22    24 1   
    47    24    25 1   
    48    24    53 1   
    49    25    54 1   
    50    26    27 1   
    51    26    55 1   
    52    26    56 1   
    53    27    28 1   
    54    27    31 1   
    55    27    57 1   
    56    28    29 1   
    57    28    58 1   
    58    28    59 1   
    59    29    30 1   
    60    29    60 1   
    61    29    61 1   
    62    30    31 1   
    63    30    62 1   
    64    30    63 1   
    65    31    64 1   
    66    31    65 1   
@<TRIPOS>SUBSTRUCTURE
     1 MDB         1 TEMP              0 ****  ****    0 ROOT
