@<TRIPOS>MOLECULE
MDC
   49    51     1     0     0
SMALL
No Charge or Current Charge


@<TRIPOS>ATOM
      1 C1          -2.5800    -0.4050    -4.6570 c5         1 MDC      -0.167900
      2 C2          -2.5210    -0.0860    -6.1780 c5         1 MDC      -0.167900
      3 C3          -1.1130     0.5130    -6.3150 c          1 MDC       0.569500
      4 O3          -0.7290     1.4490    -7.0020 o          1 MDC      -0.494500
      5 N4          -0.3800    -0.0920    -5.2890 n          1 MDC      -0.317600
      6 C5          -1.1370    -0.8530    -4.3890 c          1 MDC       0.569500
      7 O5          -0.7280    -1.8060    -3.7420 o          1 MDC      -0.494500
      8 C6           1.0410     0.0450    -5.2240 c2         1 MDC      -0.183400
      9 C7           1.8250     0.0690    -4.1310 c2         1 MDC      -0.034400
     10 N8           1.3600     0.0420    -2.8020 ns         1 MDC      -0.407100
     11 C9           2.1090     0.0330    -1.6480 c          1 MDC       0.638300
     12 O9           3.3310     0.0100    -1.7010 o          1 MDC      -0.603100
     13 O11         -0.6800     0.1400     0.9540 os         1 MDC      -0.331200
     14 C12         -0.1170     0.1420    -0.2950 c          1 MDC       0.700300
     15 O12         -0.8380     0.2410    -1.2770 o          1 MDC      -0.525000
     16 C13          1.3660     0.0450    -0.3650 cc         1 MDC      -0.351400
     17 C14          2.0910    -0.0270     0.8100 cd         1 MDC       0.041800
     18 C24          1.4140    -0.0210     2.1000 ca         1 MDC      -0.253800
     19 C28          0.0220     0.0600     2.1250 ca         1 MDC       0.244100
     20 C15          2.1270    -0.0970     3.3070 ca         1 MDC       0.017000
     21 C16          1.4300    -0.0890     4.5260 ca         1 MDC      -0.228000
     22 C17          0.0250    -0.0080     4.5570 ca         1 MDC       0.421000
     23 N17         -0.6760     0.0000     5.7910 nh         1 MDC      -0.809400
     24 C18         -0.6710     0.0670     3.3390 ca         1 MDC      -0.257000
     25 C19         -0.0910     0.6150     7.0070 c3         1 MDC       0.219800
     26 C20          0.4730    -0.4080     8.0110 c3         1 MDC      -0.116600
     27 C21         -2.0230    -0.6090     5.9200 c3         1 MDC       0.219800
     28 C22         -3.1690     0.4190     5.9410 c3         1 MDC      -0.116600
     29 H11         -2.7520     0.5330    -4.1160 hc         1 MDC       0.085450
     30 H12         -3.3110    -1.1610    -4.3490 hc         1 MDC       0.085450
     31 H21         -3.2940     0.5870    -6.5650 hc         1 MDC       0.085450
     32 H22         -2.5410    -1.0310    -6.7340 hc         1 MDC       0.085450
     33 H6           1.4920     0.1290    -6.2170 h4         1 MDC       0.206000
     34 H7           2.9120     0.1630    -4.2120 h4         1 MDC       0.218000
     35 HN8          0.3570     0.0240    -2.6530 hn         1 MDC       0.355500
     36 H14          3.1790    -0.0940     0.7840 ha         1 MDC       0.215000
     37 H15          3.2140    -0.1640     3.3050 ha         1 MDC       0.122000
     38 H16          1.9960    -0.1590     5.4480 ha         1 MDC       0.123000
     39 H18         -1.7510     0.1430     3.3220 ha         1 MDC       0.141000
     40 H191        -0.8500     1.2220     7.5190 h1         1 MDC       0.054450
     41 H192         0.7100     1.3130     6.7270 h1         1 MDC       0.054450
     42 H201         0.9280     0.1110     8.8630 hc         1 MDC       0.046033
     43 H202        -0.3210    -1.0590     8.3930 hc         1 MDC       0.046033
     44 H203         1.2400    -1.0350     7.5420 hc         1 MDC       0.046033
     45 H211        -2.1970    -1.3140     5.0950 h1         1 MDC       0.054450
     46 H212        -2.0740    -1.2070     6.8390 h1         1 MDC       0.054450
     47 H221        -4.1360    -0.0950     5.9950 hc         1 MDC       0.046033
     48 H222        -3.0860     1.0790     6.8130 hc         1 MDC       0.046033
     49 H223        -3.1590     1.0380     5.0370 hc         1 MDC       0.046033
@<TRIPOS>BOND
     1     1     2 1   
     2     1     6 1   
     3     1    29 1   
     4     1    30 1   
     5     2     3 1   
     6     2    31 1   
     7     2    32 1   
     8     3     4 2   
     9     3     5 1   
    10     5     6 1   
    11     5     8 1   
    12     6     7 2   
    13     8     9 2   
    14     8    33 1   
    15     9    10 1   
    16     9    34 1   
    17    10    11 1   
    18    10    35 1   
    19    11    12 2   
    20    11    16 1   
    21    13    14 1   
    22    13    19 1   
    23    14    15 2   
    24    14    16 1   
    25    16    17 2   
    26    17    18 1   
    27    17    36 1   
    28    18    19 ar  
    29    18    20 ar  
    30    19    24 ar  
    31    20    21 ar  
    32    20    37 1   
    33    21    22 ar  
    34    21    38 1   
    35    22    23 1   
    36    22    24 ar  
    37    23    25 1   
    38    23    27 1   
    39    24    39 1   
    40    25    26 1   
    41    25    40 1   
    42    25    41 1   
    43    26    42 1   
    44    26    43 1   
    45    26    44 1   
    46    27    28 1   
    47    27    45 1   
    48    27    46 1   
    49    28    47 1   
    50    28    48 1   
    51    28    49 1   
@<TRIPOS>SUBSTRUCTURE
     1 MDC         1 TEMP              0 ****  ****    0 ROOT
