@<TRIPOS>MOLECULE
MDC
   49    51     1     0     0
SMALL
abcg2


@<TRIPOS>ATOM
      1 C1          -2.4020    -1.2200    -4.9020 c5         1 MDC      -0.167900
      2 C2          -2.5790     0.1310    -5.5820 c5         1 MDC      -0.167900
      3 C3          -1.1930     0.7150    -5.6620 c          1 MDC       0.569500
      4 O3          -0.8610     1.7790    -6.1180 o          1 MDC      -0.494500
      5 N4          -0.3060    -0.1950    -5.1110 n          1 MDC      -0.317600
      6 C5          -0.9190    -1.3680    -4.6890 c          1 MDC       0.569500
      7 O5          -0.3290    -2.3110    -4.2270 o          1 MDC      -0.494500
      8 C6           1.0930     0.0120    -5.1110 c2         1 MDC      -0.183400
      9 C7           1.8050     0.1160    -3.9900 c2         1 MDC      -0.034400
     10 N8           1.2770     0.0870    -2.7210 ns         1 MDC      -0.407100
     11 C9           2.0320     0.1470    -1.5910 c          1 MDC       0.638300
     12 O9           3.2490     0.2300    -1.6190 o          1 MDC      -0.603100
     13 O11         -0.7040    -0.0840     1.0010 os         1 MDC      -0.331200
     14 C12         -0.1470    -0.0390    -0.2330 c          1 MDC       0.700300
     15 O12         -0.9230    -0.1260    -1.1640 o          1 MDC      -0.525000
     16 C13          1.2900     0.1040    -0.3080 cc         1 MDC      -0.351400
     17 C14          2.0060     0.1980     0.8550 cd         1 MDC       0.041800
     18 C24          1.3850     0.1670     2.1120 ca         1 MDC      -0.253800
     19 C28         -0.0080     0.0180     2.1560 ca         1 MDC       0.244100
     20 C15          2.0550     0.2770     3.3440 ca         1 MDC       0.017000
     21 C16          1.3790     0.2450     4.5290 ca         1 MDC      -0.228000
     22 C17         -0.0400     0.0970     4.5650 ca         1 MDC       0.421000
     23 N17         -0.7100     0.0700     5.7330 nh         1 MDC      -0.809400
     24 C18         -0.7180    -0.0220     3.3310 ca         1 MDC      -0.257000
     25 C19         -0.0540     0.3050     7.0110 c3         1 MDC       0.219800
     26 C20          0.4980    -0.9660     7.6400 c3         1 MDC      -0.116600
     27 C21         -2.1390    -0.1950     5.7920 c3         1 MDC       0.219800
     28 C22         -2.9910     1.0500     5.5980 c3         1 MDC      -0.116600
     29 H11         -2.9090    -1.2800    -3.9380 hc         1 MDC       0.085450
     30 H12         -2.7630    -2.0550    -5.5030 hc         1 MDC       0.085450
     31 H21         -3.2250     0.8110    -5.0270 hc         1 MDC       0.085450
     32 H22         -2.9880     0.0470    -6.5890 hc         1 MDC       0.085450
     33 H6           1.5760     0.0720    -6.0750 h4         1 MDC       0.206000
     34 H7           2.8760     0.2360    -4.0570 h4         1 MDC       0.218000
     35 HN8          0.2730     0.0340    -2.5900 hn         1 MDC       0.355500
     36 H14          3.0830     0.3030     0.8060 ha         1 MDC       0.215000
     37 H15          3.1330     0.3820     3.3470 ha         1 MDC       0.122000
     38 H16          1.9500     0.3220     5.4420 ha         1 MDC       0.123000
     39 H18         -1.7930    -0.1210     3.2800 ha         1 MDC       0.141000
     40 H191        -0.7910     0.7570     7.6750 h1         1 MDC       0.054450
     41 H192         0.7310     1.0510     6.8920 h1         1 MDC       0.054450
     42 H201         0.9490    -0.7410     8.6060 hc         1 MDC       0.046033
     43 H202        -0.2930    -1.7000     7.8030 hc         1 MDC       0.046033
     44 H203         1.2600    -1.4270     7.0120 hc         1 MDC       0.046033
     45 H211        -2.4020    -0.9640     5.0640 h1         1 MDC       0.054450
     46 H212        -2.3470    -0.6330     6.7680 h1         1 MDC       0.054450
     47 H221        -4.0480     0.7920     5.6720 hc         1 MDC       0.046033
     48 H222        -2.7760     1.7970     6.3620 hc         1 MDC       0.046033
     49 H223        -2.8260     1.5080     4.6230 hc         1 MDC       0.046033
@<TRIPOS>BOND
     1     1     2 1   
     2     1     6 1   
     3     1    29 1   
     4     1    30 1   
     5     2     3 1   
     6     2    31 1   
     7     2    32 1   
     8     3     4 2   
     9     3     5 1   
    10     5     6 1   
    11     5     8 1   
    12     6     7 2   
    13     8     9 2   
    14     8    33 1   
    15     9    10 1   
    16     9    34 1   
    17    10    11 1   
    18    10    35 1   
    19    11    12 2   
    20    11    16 1   
    21    13    14 1   
    22    13    19 1   
    23    14    15 2   
    24    14    16 1   
    25    16    17 2   
    26    17    18 1   
    27    17    36 1   
    28    18    19 ar  
    29    18    20 ar  
    30    19    24 ar  
    31    20    21 ar  
    32    20    37 1   
    33    21    22 ar  
    34    21    38 1   
    35    22    23 1   
    36    22    24 ar  
    37    23    25 1   
    38    23    27 1   
    39    24    39 1   
    40    25    26 1   
    41    25    40 1   
    42    25    41 1   
    43    26    42 1   
    44    26    43 1   
    45    26    44 1   
    46    27    28 1   
    47    27    45 1   
    48    27    46 1   
    49    28    47 1   
    50    28    48 1   
    51    28    49 1   
@<TRIPOS>SUBSTRUCTURE
     1 MDC         1 TEMP              0 ****  ****    0 ROOT
