@<TRIPOS>MOLECULE
MDD
    9     8     1     0     0
SMALL
No Charge or Current Charge


@<TRIPOS>ATOM
      1 OA4         -0.7070     0.3400    -1.9220 o          1 MDD      -0.502100
      2 CA5         -0.2140    -0.4500    -1.1270 c          1 MDD       0.582900
      3 CA6          0.7000    -0.0140    -0.0040 c3         1 MDD      -0.339400
      4 CA7         -0.1910     0.4900     1.1090 c          1 MDD       0.582900
      5 OA8         -0.7510    -0.2620     1.8980 o          1 MDD      -0.502100
      6 HA5         -0.4170    -1.5420    -1.1940 h4         1 MDD       0.000700
      7 HA61         1.2550    -0.8850     0.3590 hc         1 MDD       0.088700
      8 HA62         1.3220     0.8140    -0.3600 hc         1 MDD       0.088700
      9 HA7         -0.3130     1.5930     1.1750 h4         1 MDD       0.000700
@<TRIPOS>BOND
     1     1     2 2   
     2     2     3 1   
     3     2     6 1   
     4     3     4 1   
     5     3     7 1   
     6     3     8 1   
     7     4     5 2   
     8     4     9 1   
@<TRIPOS>SUBSTRUCTURE
     1 MDD         1 TEMP              0 ****  ****    0 ROOT
