@<TRIPOS>MOLECULE
MDD
    9     8     1     0     0
SMALL
abcg2


@<TRIPOS>ATOM
      1 OA4         -0.2490     0.0520    -2.2610 o          1 MDD      -0.502100
      2 CA5         -0.2260    -0.4220    -1.1570 c          1 MDD       0.582900
      3 CA6          0.6540     0.0790    -0.0370 c3         1 MDD      -0.339400
      4 CA7         -0.1830     0.4090     1.1750 c          1 MDD       0.582900
      5 OA8         -0.6700    -0.4280     1.8900 o          1 MDD      -0.502100
      6 HA5         -0.8560    -1.2860    -0.8870 h4         1 MDD       0.000700
      7 HA61         1.3280    -0.7450     0.2200 hc         1 MDD       0.088700
      8 HA62         1.2330     0.9420    -0.3600 hc         1 MDD       0.088700
      9 HA7         -0.3480     1.4830     1.3510 h4         1 MDD       0.000700
@<TRIPOS>BOND
     1     1     2 2   
     2     2     3 1   
     3     2     6 1   
     4     3     4 1   
     5     3     7 1   
     6     3     8 1   
     7     4     5 2   
     8     4     9 1   
@<TRIPOS>SUBSTRUCTURE
     1 MDD         1 TEMP              0 ****  ****    0 ROOT
