@<TRIPOS>MOLECULE
MDF
   25    25     1     0     0
SMALL
bcc


@<TRIPOS>ATOM
      1 N           25.0300    19.8310    16.9200 n8         1 MDF      -0.865800
      2 CA          25.9620    20.2140    17.9540 c3         1 MDF       0.157800
      3 CG          27.1610    19.2870    17.9730 ca         1 MDF       0.003700
      4 CD1         27.4040    18.4930    19.0810 ca         1 MDF      -0.216000
      5 CD2         28.0040    19.2360    16.8650 ca         1 MDF      -0.216000
      6 CE1         28.5030    17.6320    19.0820 ca         1 MDF       0.179600
      7 CE2         29.0930    18.3710    16.8740 ca         1 MDF       0.179600
      8 CZ          29.3470    17.5660    17.9820 ca         1 MDF      -0.260000
      9 OH1         28.6990    16.8830    20.1830 oh         1 MDF      -0.492600
     10 OH2         29.9450    18.2700    15.8370 oh         1 MDF      -0.492600
     11 C           26.4670    21.6520    17.8480 c          1 MDF       0.600100
     12 O           26.3290    22.3540    16.8790 o          1 MDF      -0.546000
     13 OXT         27.0880    22.0250    18.9560 os         1 MDF      -0.405900
     14 CH3         27.6440    23.3400    18.9930 c3         1 MDF       0.125700
     15 H           25.4230    19.9980    16.0020 hn         1 MDF       0.356300
     16 H2          24.1980    20.4060    16.9770 hn         1 MDF       0.356300
     17 HA          25.4510    20.1250    18.9170 h1         1 MDF       0.092700
     18 HD1         26.7500    18.5310    19.9430 ha         1 MDF       0.144500
     19 HD2         27.8210    19.8640    15.9990 ha         1 MDF       0.144500
     20 HZ          30.2020    16.8990    17.9750 ha         1 MDF       0.148000
     21 HH1         29.4720    16.3170    20.0750 ho         1 MDF       0.429500
     22 HH2         29.6770    18.8590    15.1220 ho         1 MDF       0.429500
     23 H31         26.8750    24.1010    18.8600 h1         1 MDF       0.049367
     24 H32         28.4120    23.4680    18.2300 h1         1 MDF       0.049367
     25 H33         28.0910    23.4480    19.9770 h1         1 MDF       0.049367
@<TRIPOS>BOND
     1     1     2 1   
     2     1    15 1   
     3     1    16 1   
     4     2     3 1   
     5     2    11 1   
     6     2    17 1   
     7     3     4 ar  
     8     3     5 ar  
     9     4     6 ar  
    10     4    18 1   
    11     5     7 ar  
    12     5    19 1   
    13     6     8 ar  
    14     6     9 1   
    15     7     8 ar  
    16     7    10 1   
    17     8    20 1   
    18     9    21 1   
    19    10    22 1   
    20    11    12 2   
    21    11    13 1   
    22    13    14 1   
    23    14    23 1   
    24    14    24 1   
    25    14    25 1   
@<TRIPOS>SUBSTRUCTURE
     1 MDF         1 TEMP              0 ****  ****    0 ROOT
