@<TRIPOS>MOLECULE
MDF
   25    25     1     0     0
SMALL
No Charge or Current Charge


@<TRIPOS>ATOM
      1 N           24.9890    19.8490    16.9790 n8         1 MDF      -0.865800
      2 CA          26.0450    20.2470    17.9750 c3         1 MDF       0.157800
      3 CG          27.2080    19.2510    17.9590 ca         1 MDF       0.003700
      4 CD1         27.4600    18.4330    19.0790 ca         1 MDF      -0.216000
      5 CD2         28.0450    19.1340    16.8290 ca         1 MDF      -0.216000
      6 CE1         28.5250    17.5220    19.0710 ca         1 MDF       0.179600
      7 CE2         29.1100    18.2200    16.8270 ca         1 MDF       0.179600
      8 CZ          29.3510    17.4150    17.9460 ca         1 MDF      -0.260000
      9 OH1         28.7520    16.7430    20.1620 oh         1 MDF      -0.492600
     10 OH2         29.9170    18.1090    15.7380 oh         1 MDF      -0.492600
     11 C           26.5870    21.7100    17.8390 c          1 MDF       0.600100
     12 O           26.6660    22.3180    16.7750 o          1 MDF      -0.546000
     13 OXT         26.9430    22.2400    19.0550 os         1 MDF      -0.405900
     14 CH3         27.4590    23.5830    19.0870 c3         1 MDF       0.125700
     15 H           25.3800    19.9340    16.0350 hn         1 MDF       0.356300
     16 H2          24.2310    20.5400    16.9960 hn         1 MDF       0.356300
     17 HA          25.5790    20.2070    18.9700 h1         1 MDF       0.092700
     18 HD1         26.8280    18.5030    19.9610 ha         1 MDF       0.144500
     19 HD2         27.8640    19.7560    15.9560 ha         1 MDF       0.144500
     20 HZ          30.1790    16.7110    17.9310 ha         1 MDF       0.148000
     21 HH1         29.5270    16.1740    19.9760 ho         1 MDF       0.429500
     22 HH2         29.6040    18.7380    15.0560 ho         1 MDF       0.429500
     23 H31         26.7210    24.2960    18.6970 h1         1 MDF       0.049367
     24 H32         28.3740    23.6640    18.4860 h1         1 MDF       0.049367
     25 H33         27.7020    23.8740    20.1170 h1         1 MDF       0.049367
@<TRIPOS>BOND
     1     1     2 1   
     2     1    15 1   
     3     1    16 1   
     4     2     3 1   
     5     2    11 1   
     6     2    17 1   
     7     3     4 ar  
     8     3     5 ar  
     9     4     6 ar  
    10     4    18 1   
    11     5     7 ar  
    12     5    19 1   
    13     6     8 ar  
    14     6     9 1   
    15     7     8 ar  
    16     7    10 1   
    17     8    20 1   
    18     9    21 1   
    19    10    22 1   
    20    11    12 2   
    21    11    13 1   
    22    13    14 1   
    23    14    23 1   
    24    14    24 1   
    25    14    25 1   
@<TRIPOS>SUBSTRUCTURE
     1 MDF         1 TEMP              0 ****  ****    0 ROOT
