@<TRIPOS>MOLECULE
MDH
   16    15     1     0     0
SMALL
No Charge or Current Charge


@<TRIPOS>ATOM
      1 N            4.8210     1.1200     4.0440 nu         1 MDH      -0.750200
      2 CM           5.0370    -0.3350     4.0920 c3         1 MDH       0.185100
      3 CA           3.6440     1.8600     4.3800 ce         1 MDH       0.016800
      4 C            2.3420     1.1490     4.8770 c          1 MDH       0.715200
      5 O            1.3690     1.8450     5.1470 o          1 MDH      -0.717000
      6 OXT          2.2990    -0.0710     4.9920 o          1 MDH      -0.717000
      7 CB           3.7010     3.2110     4.2490 c2         1 MDH      -0.356200
      8 CG           4.8830     4.0400     3.7820 c3         1 MDH      -0.025900
      9 H            5.6130     1.6800     3.7310 hn         1 MDH       0.388000
     10 HM1          6.0590    -0.5710     3.7670 h1         1 MDH       0.019700
     11 HM2          4.9060    -0.7120     5.1140 h1         1 MDH       0.019700
     12 HM3          4.3360    -0.8520     3.4230 h1         1 MDH       0.019700
     13 HB           2.8250     3.8140     4.4940 ha         1 MDH       0.190000
     14 HG1          5.1840     3.7650     2.7640 hc         1 MDH       0.004033
     15 HG2          4.6350     5.1080     3.7780 hc         1 MDH       0.004033
     16 HG3          5.7490     3.9030     4.4410 hc         1 MDH       0.004033
@<TRIPOS>BOND
     1     1     2 1   
     2     1     3 1   
     3     1     9 1   
     4     2    10 1   
     5     2    11 1   
     6     2    12 1   
     7     3     4 1   
     8     3     7 2   
     9     4     5 1   
    10     4     6 1   
    11     7     8 1   
    12     7    13 1   
    13     8    14 1   
    14     8    15 1   
    15     8    16 1   
@<TRIPOS>SUBSTRUCTURE
     1 MDH         1 TEMP              0 ****  ****    0 ROOT
