@<TRIPOS>MOLECULE
MDH
   16    15     1     0     0
SMALL
abcg2


@<TRIPOS>ATOM
      1 N            4.6320     0.9710     3.6270 nu         1 MDH      -0.750200
      2 CM           5.0970    -0.1310     4.4510 c3         1 MDH       0.185100
      3 CA           3.6140     1.7820     4.1350 ce         1 MDH       0.016800
      4 C            2.2810     1.0990     4.4740 c          1 MDH       0.715200
      5 O            1.5270     1.6980     5.2640 o          1 MDH      -0.717000
      6 OXT          2.0560     0.0150     3.9020 o          1 MDH      -0.717000
      7 CB           3.7110     3.1190     4.2160 c2         1 MDH      -0.356200
      8 CG           4.9020     3.9560     3.8680 c3         1 MDH      -0.025900
      9 H            5.4190     1.5160     3.3060 hn         1 MDH       0.388000
     10 HM1          5.8610    -0.6860     3.9070 h1         1 MDH       0.019700
     11 HM2          5.5330     0.1850     5.4070 h1         1 MDH       0.019700
     12 HM3          4.2790    -0.8150     4.6630 h1         1 MDH       0.019700
     13 HB           2.8240     3.6570     4.5260 ha         1 MDH       0.190000
     14 HG1          4.8210     4.3960     2.8690 hc         1 MDH       0.004033
     15 HG2          5.0030     4.7910     4.5630 hc         1 MDH       0.004033
     16 HG3          5.8430     3.4020     3.8950 hc         1 MDH       0.004033
@<TRIPOS>BOND
     1     1     2 1   
     2     1     3 1   
     3     1     9 1   
     4     2    10 1   
     5     2    11 1   
     6     2    12 1   
     7     3     4 1   
     8     3     7 2   
     9     4     5 1   
    10     4     6 1   
    11     7     8 1   
    12     7    13 1   
    13     8    14 1   
    14     8    15 1   
    15     8    16 1   
@<TRIPOS>SUBSTRUCTURE
     1 MDH         1 TEMP              0 ****  ****    0 ROOT
