@<TRIPOS>MOLECULE
MDI
   60    64     1     0     0
SMALL
No Charge or Current Charge


@<TRIPOS>ATOM
      1 C1          15.3270    -5.5130   -35.5630 ca         1 MDI      -0.039300
      2 C2          14.9270    -6.4360   -36.5440 ca         1 MDI      -0.122000
      3 C3          13.9490    -7.3930   -36.2640 ca         1 MDI      -0.094000
      4 C7          15.2000    -4.5490   -33.1710 c6         1 MDI       0.165000
      5 C8          14.4560    -4.6400   -31.8130 c6         1 MDI      -0.078400
      6 C9          12.9970    -5.0740   -31.9950 c6         1 MDI      -0.072400
      7 C10         12.9670    -6.4630   -32.6530 c6         1 MDI      -0.042100
      8 C13         18.9620    -5.6280   -32.6660 ca         1 MDI       0.333500
      9 C14         19.6930    -6.2810   -31.6330 ca         1 MDI      -0.195300
     10 C15         21.1020    -6.1870   -31.6340 ca         1 MDI      -0.040000
     11 C16         21.7320    -5.4690   -32.6580 ca         1 MDI      -0.160000
     12 C19         12.2780    -8.4890   -34.7680 cp         1 MDI       0.007000
     13 C20         11.1470    -8.5820   -35.6330 ca         1 MDI      -0.143000
     14 C21         10.1510    -9.5630   -35.4380 ca         1 MDI      -0.037000
     15 C22         10.3210   -10.4460   -34.3650 ca         1 MDI      -0.231900
     16 C24         11.3930   -10.3840   -33.5370 ca         1 MDI      -0.034200
     17 F1          18.2430    -6.1730   -29.7490 f          1 MDI      -0.120000
     18 C18         18.9630    -7.0280   -30.5110 c3         1 MDI       0.231600
     19 F           19.8060    -7.6720   -29.6700 f          1 MDI      -0.120000
     20 C17         20.9490    -4.8630   -33.6460 ca         1 MDI       0.354900
     21 N1          19.6020    -4.9390   -33.6590 nb         1 MDI      -0.659000
     22 O           16.8590    -6.8200   -32.6590 o          1 MDI      -0.592100
     23 N           16.6680    -4.5350   -32.9130 n          1 MDI      -0.375800
     24 C6          14.7420    -5.5600   -34.2650 ca         1 MDI      -0.090300
     25 C           16.3780    -4.4760   -35.9600 c3         1 MDI      -0.050800
     26 C5          13.7040    -6.5050   -34.0020 ca         1 MDI      -0.058300
     27 C4          13.3240    -7.4480   -35.0020 cp         1 MDI      -0.046000
     28 C25         12.3990    -9.4250   -33.7030 ca         1 MDI      -0.125000
     29 N3          11.2750   -11.3910   -32.5960 na         1 MDI      -0.065400
     30 N2          10.0940   -12.1270   -32.8160 nc         1 MDI      -0.518100
     31 C23          9.5240   -11.5490   -33.8850 cd         1 MDI       0.359900
     32 C26          8.2240   -12.0510   -34.4500 c3         1 MDI      -0.101400
     33 H1          15.3770    -6.4130   -37.5330 ha         1 MDI       0.112000
     34 H2          13.6630    -8.1030   -37.0370 ha         1 MDI       0.116000
     35 H3          14.9310    -3.5650   -33.5820 h1         1 MDI       0.050700
     36 H4          14.9600    -5.3620   -31.1570 hc         1 MDI       0.063700
     37 H5          14.5030    -3.6720   -31.2960 hc         1 MDI       0.063700
     38 H6          12.4570    -4.3460   -32.6160 hc         1 MDI       0.045200
     39 H7          12.4880    -5.1060   -31.0220 hc         1 MDI       0.045200
     40 H8          11.9160    -6.7560   -32.7820 hc         1 MDI       0.053200
     41 H9          13.4120    -7.2010   -31.9720 hc         1 MDI       0.053200
     42 H10         17.8100    -2.8720   -33.5700 h1         1 MDI       0.046033
     43 H11         16.5230    -2.4720   -32.4040 h1         1 MDI       0.046033
     44 H12         18.0030    -3.2750   -31.8350 h1         1 MDI       0.046033
     45 H13         21.7070    -6.6550   -30.8590 ha         1 MDI       0.138000
     46 H14         22.8140    -5.3770   -32.6900 ha         1 MDI       0.132000
     47 H15         11.0440    -7.8790   -36.4550 ha         1 MDI       0.117000
     48 H16          9.2880    -9.6290   -36.0970 ha         1 MDI       0.118000
     49 H17         18.2820    -7.7770   -30.9290 h2         1 MDI       0.086700
     50 H18         21.4130    -4.3000   -34.4550 h4         1 MDI       0.027100
     51 H19         16.1340    -3.4790   -35.5750 hc         1 MDI       0.049033
     52 H20         17.3690    -4.7550   -35.5880 hc         1 MDI       0.049033
     53 H21         16.4570    -4.3790   -37.0490 hc         1 MDI       0.049033
     54 H22         13.2580    -9.4000   -33.0380 ha         1 MDI       0.124000
     55 H23         11.9240   -11.6030   -31.8400 hn         1 MDI       0.376000
     56 H24          7.8000   -12.8530   -33.8350 hc         1 MDI       0.049367
     57 H25          7.4880   -11.2410   -34.5030 hc         1 MDI       0.049367
     58 H26          8.3690   -12.4430   -35.4630 hc         1 MDI       0.049367
     59 C11         17.2900    -3.2120   -32.6660 c3         1 MDI       0.088300
     60 C12         17.4240    -5.7310   -32.7330 c          1 MDI       0.520600
@<TRIPOS>BOND
     1     1     2 ar  
     2     1    24 ar  
     3     1    25 1   
     4     2     3 ar  
     5     2    33 1   
     6     3    27 ar  
     7     3    34 1   
     8     4     5 1   
     9     4    23 1   
    10     4    24 1   
    11     4    35 1   
    12     5     6 1   
    13     5    36 1   
    14     5    37 1   
    15     6     7 1   
    16     6    38 1   
    17     6    39 1   
    18     7    26 1   
    19     7    40 1   
    20     7    41 1   
    21     8     9 ar  
    22     8    21 ar  
    23     8    60 1   
    24     9    10 ar  
    25     9    18 1   
    26    10    11 ar  
    27    10    45 1   
    28    11    20 ar  
    29    11    46 1   
    30    12    13 ar  
    31    12    27 1   
    32    12    28 ar  
    33    13    14 ar  
    34    13    47 1   
    35    14    15 ar  
    36    14    48 1   
    37    15    16 ar  
    38    15    31 1   
    39    16    28 ar  
    40    16    29 1   
    41    17    18 1   
    42    18    19 1   
    43    18    49 1   
    44    20    21 ar  
    45    20    50 1   
    46    22    60 2   
    47    23    59 1   
    48    23    60 1   
    49    24    26 ar  
    50    25    51 1   
    51    25    52 1   
    52    25    53 1   
    53    26    27 ar  
    54    28    54 1   
    55    29    30 1   
    56    29    55 1   
    57    30    31 2   
    58    31    32 1   
    59    32    56 1   
    60    32    57 1   
    61    32    58 1   
    62    42    59 1   
    63    43    59 1   
    64    44    59 1   
@<TRIPOS>SUBSTRUCTURE
     1 MDI         1 TEMP              0 ****  ****    0 ROOT
