@<TRIPOS>MOLECULE
MDI
   60    64     1     0     0
SMALL
abcg2


@<TRIPOS>ATOM
      1 C1          16.0260    -7.1260   -35.1090 ca         1 MDI      -0.039300
      2 C2          15.4250    -7.8880   -36.1120 ca         1 MDI      -0.122000
      3 C3          14.1490    -8.3980   -35.9840 ca         1 MDI      -0.094000
      4 C7          15.7240    -6.0970   -32.7150 c6         1 MDI       0.165000
      5 C8          15.6740    -6.9980   -31.4720 c6         1 MDI      -0.078400
      6 C9          14.2540    -7.5730   -31.3060 c6         1 MDI      -0.072400
      7 C10         13.3190    -7.2220   -32.4690 c6         1 MDI      -0.042100
      8 C13         19.2480    -4.5820   -32.5860 ca         1 MDI       0.333500
      9 C14         19.7830    -3.9420   -31.4690 ca         1 MDI      -0.195300
     10 C15         20.9020    -3.1430   -31.6540 ca         1 MDI      -0.040000
     11 C16         21.4380    -3.0160   -32.9250 ca         1 MDI      -0.160000
     12 C19         12.0340    -8.7160   -34.7470 cp         1 MDI       0.007000
     13 C20         10.9430    -7.8450   -34.4990 ca         1 MDI      -0.143000
     14 C21          9.6460    -8.2990   -34.4710 ca         1 MDI      -0.037000
     15 C22          9.4100    -9.6600   -34.6960 ca         1 MDI      -0.231900
     16 C24         10.4940   -10.5160   -34.9460 ca         1 MDI      -0.034200
     17 F1          17.8280    -3.9170   -30.1790 f          1 MDI      -0.120000
     18 C18         19.1730    -4.1380   -30.1120 c3         1 MDI       0.231600
     19 F           19.6740    -3.2420   -29.2270 f          1 MDI      -0.120000
     20 C17         20.8290    -3.6930   -33.9680 ca         1 MDI       0.354900
     21 N1          19.7570    -4.4580   -33.8030 nb         1 MDI      -0.659000
     22 O           18.4610    -6.7050   -32.0490 o          1 MDI      -0.592100
     23 N           16.9030    -5.2440   -32.8450 n          1 MDI      -0.375800
     24 C6          15.2910    -6.8930   -33.9390 ca         1 MDI      -0.090300
     25 C           17.4240    -6.6380   -35.3760 c3         1 MDI      -0.050800
     26 C5          13.9990    -7.4340   -33.7940 ca         1 MDI      -0.058300
     27 C4          13.4120    -8.1740   -34.8250 cp         1 MDI      -0.046000
     28 C25         11.8150   -10.0610   -34.9770 ca         1 MDI      -0.125000
     29 N3           9.9570   -11.7450   -35.1230 na         1 MDI      -0.065400
     30 N2           8.6230   -11.7360   -35.0080 nc         1 MDI      -0.518100
     31 C23          8.2610   -10.5030   -34.7530 cd         1 MDI       0.359900
     32 C26          6.8390   -10.1130   -34.5620 c3         1 MDI      -0.101400
     33 H1          15.9770    -8.0770   -37.0250 ha         1 MDI       0.112000
     34 H2          13.7120    -8.9610   -36.7990 ha         1 MDI       0.116000
     35 H3          14.9240    -5.3650   -32.5540 h1         1 MDI       0.050700
     36 H4          16.3940    -7.8050   -31.5620 hc         1 MDI       0.063700
     37 H5          15.9540    -6.4090   -30.5980 hc         1 MDI       0.063700
     38 H6          13.8050    -7.2190   -30.3780 hc         1 MDI       0.045200
     39 H7          14.3110    -8.6590   -31.2260 hc         1 MDI       0.045200
     40 H8          12.9910    -6.1800   -32.3780 hc         1 MDI       0.053200
     41 H9          12.4150    -7.8240   -32.3930 hc         1 MDI       0.053200
     42 H10         17.4770    -3.3140   -33.4890 h1         1 MDI       0.046033
     43 H11         16.0510    -3.9710   -34.2700 h1         1 MDI       0.046033
     44 H12         15.9530    -3.3880   -32.6030 h1         1 MDI       0.046033
     45 H13         21.3610    -2.6260   -30.8240 ha         1 MDI       0.138000
     46 H14         22.3110    -2.4040   -33.1040 ha         1 MDI       0.132000
     47 H15         11.1430    -6.7920   -34.3430 ha         1 MDI       0.117000
     48 H16          8.8280    -7.6140   -34.2850 ha         1 MDI       0.118000
     49 H17         19.3290    -5.1410   -29.7110 h2         1 MDI       0.086700
     50 H18         21.2180    -3.6190   -34.9770 h4         1 MDI       0.027100
     51 H19         17.5110    -5.5530   -35.3630 hc         1 MDI       0.049033
     52 H20         18.1400    -7.0350   -34.6580 hc         1 MDI       0.049033
     53 H21         17.7450    -6.9720   -36.3620 hc         1 MDI       0.049033
     54 H22         12.6390   -10.7370   -35.1640 ha         1 MDI       0.124000
     55 H23         10.4360   -12.6080   -35.3200 hn         1 MDI       0.376000
     56 H24          6.1800   -10.9700   -34.6900 hc         1 MDI       0.049367
     57 H25          6.6730    -9.7030   -33.5640 hc         1 MDI       0.049367
     58 H26          6.5420    -9.3450   -35.2770 hc         1 MDI       0.049367
     59 C11         16.5870    -3.9090   -33.3220 c3         1 MDI       0.088300
     60 C12         18.1360    -5.6010   -32.4610 c          1 MDI       0.520600
@<TRIPOS>BOND
     1     1     2 ar  
     2     1    24 ar  
     3     1    25 1   
     4     2     3 ar  
     5     2    33 1   
     6     3    27 ar  
     7     3    34 1   
     8     4     5 1   
     9     4    23 1   
    10     4    24 1   
    11     4    35 1   
    12     5     6 1   
    13     5    36 1   
    14     5    37 1   
    15     6     7 1   
    16     6    38 1   
    17     6    39 1   
    18     7    26 1   
    19     7    40 1   
    20     7    41 1   
    21     8     9 ar  
    22     8    21 ar  
    23     8    60 1   
    24     9    10 ar  
    25     9    18 1   
    26    10    11 ar  
    27    10    45 1   
    28    11    20 ar  
    29    11    46 1   
    30    12    13 ar  
    31    12    27 1   
    32    12    28 ar  
    33    13    14 ar  
    34    13    47 1   
    35    14    15 ar  
    36    14    48 1   
    37    15    16 ar  
    38    15    31 1   
    39    16    28 ar  
    40    16    29 1   
    41    17    18 1   
    42    18    19 1   
    43    18    49 1   
    44    20    21 ar  
    45    20    50 1   
    46    22    60 2   
    47    23    59 1   
    48    23    60 1   
    49    24    26 ar  
    50    25    51 1   
    51    25    52 1   
    52    25    53 1   
    53    26    27 ar  
    54    28    54 1   
    55    29    30 1   
    56    29    55 1   
    57    30    31 2   
    58    31    32 1   
    59    32    56 1   
    60    32    57 1   
    61    32    58 1   
    62    42    59 1   
    63    43    59 1   
    64    44    59 1   
@<TRIPOS>SUBSTRUCTURE
     1 MDI         1 TEMP              0 ****  ****    0 ROOT
