@<TRIPOS>MOLECULE
MDL
   69    72     1     0     0
SMALL
No Charge or Current Charge


@<TRIPOS>ATOM
      1 N2          -4.0440    -1.5700    -1.6660 n7         1 MDL      -0.848400
      2 C6          -3.8930    -0.5330    -0.5890 c3         1 MDL       0.111500
      3 C7          -2.4300     0.0300    -0.4550 c          1 MDL       0.570100
      4 O9          -1.7240     0.2040    -1.4460 o          1 MDL      -0.621100
      5 C55         -4.8920     0.6290    -0.8270 c3         1 MDL      -0.024100
      6 C57         -6.3500     0.2250    -0.6210 ca         1 MDL      -0.070300
      7 C60         -6.8570     0.0440     0.6810 ca         1 MDL      -0.097500
      8 C64         -7.2040     0.0370    -1.7270 ca         1 MDL      -0.097500
      9 C61         -8.2010    -0.3220     0.8750 ca         1 MDL      -0.111500
     10 C63         -8.5470    -0.3290    -1.5320 ca         1 MDL      -0.111500
     11 C62         -9.0460    -0.5090    -0.2310 ca         1 MDL      -0.110000
     12 C1          -3.3490    -2.8490    -1.4150 c3         1 MDL       0.140100
     13 N8          -1.9200     0.3110     0.8340 n          1 MDL      -0.396800
     14 C18         -0.5000     0.7030     1.0670 c5         1 MDL       0.035700
     15 C21          0.5710    -0.3150     0.5570 c          1 MDL       0.599100
     16 O24          0.4130    -1.4910     0.2570 o          1 MDL      -0.607100
     17 C15         -0.4400     0.7370     2.6240 c5         1 MDL      -0.084400
     18 C12         -1.8600     1.2280     2.9910 c5         1 MDL      -0.093400
     19 C11         -2.7450     0.3630     2.0610 c5         1 MDL       0.108000
     20 N23          1.7910     0.3190     0.4930 ns         1 MDL      -0.483900
     21 C25          3.0460    -0.2780    -0.0130 c3         1 MDL       0.032700
     22 C26          4.1800     0.7810    -0.0320 c3         1 MDL      -0.006200
     23 C27          3.7320     2.1140    -0.5780 cc         1 MDL      -0.167400
     24 C30          3.8120     2.5580    -1.8940 cd         1 MDL      -0.134100
     25 C31          3.0630     3.1580     0.1510 ca         1 MDL      -0.100800
     26 C32          2.7570     4.1520    -0.7350 ca         1 MDL      -0.046200
     27 N33          3.2050     3.8330    -2.0030 na         1 MDL      -0.214700
     28 C34          2.0760     5.3080    -0.3290 ca         1 MDL      -0.120000
     29 C35          1.7120     5.4250     1.0290 ca         1 MDL      -0.092000
     30 C36          2.0390     4.3990     1.9470 ca         1 MDL      -0.134000
     31 C37          2.7280     3.2480     1.5110 ca         1 MDL      -0.079000
     32 C44          3.4590    -1.5370     0.8100 c          1 MDL       0.547100
     33 O46          3.2620    -1.5960     2.0200 o          1 MDL      -0.435100
     34 C47          4.1670    -2.6910     0.0520 c3         1 MDL       0.012000
     35 F48          5.0140    -2.2010    -0.8870 f          1 MDL      -0.083500
     36 F49          4.9380    -3.4090     0.9090 f          1 MDL      -0.083500
     37 C50          3.1470    -3.6420    -0.6300 c3         1 MDL       0.283000
     38 F51          2.4460    -3.0050    -1.5950 f          1 MDL      -0.088667
     39 F52          3.7690    -4.6980    -1.2050 f          1 MDL      -0.088667
     40 F53          2.2560    -4.1230     0.2670 f          1 MDL      -0.088667
     41 HN2         -3.6670    -1.1690    -2.5360 hn         1 MDL       0.425000
     42 H6          -4.1480    -0.9910     0.3760 h1         1 MDL       0.074700
     43 H551        -4.6530     1.4510    -0.1410 hc         1 MDL       0.053700
     44 H552        -4.7400     1.0350    -1.8340 hc         1 MDL       0.053700
     45 H60         -6.2120     0.1880     1.5440 ha         1 MDL       0.108000
     46 H64         -6.8250     0.1720    -2.7380 ha         1 MDL       0.108000
     47 H61         -8.5860    -0.4600     1.8830 ha         1 MDL       0.110000
     48 H63         -9.2000    -0.4730    -2.3900 ha         1 MDL       0.110000
     49 H62        -10.0860    -0.7920    -0.0810 ha         1 MDL       0.110000
     50 H11         -3.5200    -3.5500    -2.2440 h1         1 MDL       0.037700
     51 H12         -2.2650    -2.7000    -1.3170 h1         1 MDL       0.037700
     52 H13         -3.7150    -3.3200    -0.4930 h1         1 MDL       0.037700
     53 H18         -0.3020     1.6920     0.6310 h1         1 MDL       0.072700
     54 H151         0.3480     1.3990     3.0010 hc         1 MDL       0.066700
     55 H152        -0.2550    -0.2610     3.0430 hc         1 MDL       0.066700
     56 H121        -1.9790     2.2960     2.7680 hc         1 MDL       0.057200
     57 H122        -2.1010     1.0850     4.0510 hc         1 MDL       0.057200
     58 H111        -3.7270     0.8260     1.8980 h1         1 MDL       0.054200
     59 H112        -2.8950    -0.6450     2.4700 h1         1 MDL       0.054200
     60 HN3          1.8000     1.3080     0.7150 hn         1 MDL       0.342500
     61 H25          2.8630    -0.5930    -1.0480 h1         1 MDL       0.081700
     62 H261         4.5570     0.9220     0.9890 hc         1 MDL       0.065200
     63 H262         5.0270     0.4060    -0.6190 hc         1 MDL       0.065200
     64 H30          4.2340     2.0530    -2.7600 h4         1 MDL       0.218000
     65 HN33         3.1100     4.3960    -2.8430 hn         1 MDL       0.355000
     66 H34          1.8330     6.0940    -1.0410 ha         1 MDL       0.116000
     67 H35          1.1810     6.3100     1.3730 ha         1 MDL       0.113000
     68 H36          1.7610     4.4990     2.9930 ha         1 MDL       0.113000
     69 H37          2.9910     2.4590     2.2130 ha         1 MDL       0.116000
@<TRIPOS>BOND
     1     1     2 1   
     2     1    12 1   
     3     1    41 1   
     4     2     3 1   
     5     2     5 1   
     6     2    42 1   
     7     3     4 2   
     8     3    13 1   
     9     5     6 1   
    10     5    43 1   
    11     5    44 1   
    12     6     7 ar  
    13     6     8 ar  
    14     7     9 ar  
    15     7    45 1   
    16     8    10 ar  
    17     8    46 1   
    18     9    11 ar  
    19     9    47 1   
    20    10    11 ar  
    21    10    48 1   
    22    11    49 1   
    23    12    50 1   
    24    12    51 1   
    25    12    52 1   
    26    13    14 1   
    27    13    19 1   
    28    14    15 1   
    29    14    17 1   
    30    14    53 1   
    31    15    16 2   
    32    15    20 1   
    33    17    18 1   
    34    17    54 1   
    35    17    55 1   
    36    18    19 1   
    37    18    56 1   
    38    18    57 1   
    39    19    58 1   
    40    19    59 1   
    41    20    21 1   
    42    20    60 1   
    43    21    22 1   
    44    21    32 1   
    45    21    61 1   
    46    22    23 1   
    47    22    62 1   
    48    22    63 1   
    49    23    24 2   
    50    23    25 1   
    51    24    27 1   
    52    24    64 1   
    53    25    26 ar  
    54    25    31 ar  
    55    26    27 1   
    56    26    28 ar  
    57    27    65 1   
    58    28    29 ar  
    59    28    66 1   
    60    29    30 ar  
    61    29    67 1   
    62    30    31 ar  
    63    30    68 1   
    64    31    69 1   
    65    32    33 2   
    66    32    34 1   
    67    34    35 1   
    68    34    36 1   
    69    34    37 1   
    70    37    38 1   
    71    37    39 1   
    72    37    40 1   
@<TRIPOS>SUBSTRUCTURE
     1 MDL         1 TEMP              0 ****  ****    0 ROOT
