@<TRIPOS>MOLECULE
MDL
   69    72     1     0     0
SMALL
abcg2


@<TRIPOS>ATOM
      1 N2          -3.6020    -1.0270    -1.6300 n7         1 MDL      -0.848400
      2 C6          -3.6370    -0.3940    -0.3380 c3         1 MDL       0.111500
      3 C7          -2.2750     0.1770     0.0670 c          1 MDL       0.570100
      4 O9          -1.5210     0.6530    -0.7730 o          1 MDL      -0.621100
      5 C55         -4.6670     0.7480    -0.3250 c3         1 MDL      -0.024100
      6 C57         -6.0710     0.2440    -0.4950 ca         1 MDL      -0.070300
      7 C60         -6.8100    -0.1600     0.6150 ca         1 MDL      -0.097500
      8 C64         -6.6540     0.1400    -1.7550 ca         1 MDL      -0.097500
      9 C61         -8.0980    -0.6590     0.4730 ca         1 MDL      -0.111500
     10 C63         -7.9430    -0.3550    -1.9030 ca         1 MDL      -0.111500
     11 C62         -8.6690    -0.7590    -0.7890 ca         1 MDL      -0.110000
     12 C1          -2.8150    -2.2450    -1.6650 c3         1 MDL       0.140100
     13 N8          -1.9420     0.1610     1.3660 n          1 MDL      -0.396800
     14 C18         -0.6240     0.6120     1.7660 c5         1 MDL       0.035700
     15 C21          0.4470    -0.1860     1.0390 c          1 MDL       0.599100
     16 O24          0.3510    -1.3870     0.8620 o          1 MDL      -0.607100
     17 C15         -0.5790     0.3280     3.2770 c5         1 MDL      -0.084400
     18 C12         -2.0500     0.2960     3.6820 c5         1 MDL      -0.093400
     19 C11         -2.7240    -0.3520     2.4830 c5         1 MDL       0.108000
     20 N23          1.5520     0.4980     0.6990 ns         1 MDL      -0.483900
     21 C25          2.6170    -0.1590    -0.0110 c3         1 MDL       0.032700
     22 C26          3.8350     0.7830    -0.1320 c3         1 MDL      -0.006200
     23 C27          3.4960     2.0560    -0.8340 cc         1 MDL      -0.167400
     24 C30          3.4750     2.2660    -2.1850 cd         1 MDL      -0.134100
     25 C31          3.0720     3.2860    -0.2320 ca         1 MDL      -0.100800
     26 C32          2.8090     4.1910    -1.2850 ca         1 MDL      -0.046200
     27 N33          3.0670     3.5380    -2.4540 na         1 MDL      -0.214700
     28 C34          2.3710     5.4940    -1.0530 ca         1 MDL      -0.120000
     29 C35          2.1950     5.8830     0.2610 ca         1 MDL      -0.092000
     30 C36          2.4520     5.0010     1.3240 ca         1 MDL      -0.134000
     31 C37          2.8900     3.7130     1.0910 ca         1 MDL      -0.079000
     32 C44          3.0450    -1.3970     0.7590 c          1 MDL       0.547100
     33 O46          3.1670    -1.4300     1.9490 o          1 MDL      -0.435100
     34 C47          3.4860    -2.6350    -0.0580 c3         1 MDL       0.012000
     35 F48          4.1230    -2.2290    -1.1800 f          1 MDL      -0.083500
     36 F49          4.3510    -3.3480     0.6800 f          1 MDL      -0.083500
     37 C50          2.3580    -3.5920    -0.4870 c3         1 MDL       0.283000
     38 F51          1.5180    -2.9950    -1.3210 f          1 MDL      -0.088667
     39 F52          2.8790    -4.6460    -1.1110 f          1 MDL      -0.088667
     40 F53          1.6930    -4.0250     0.5760 f          1 MDL      -0.088667
     41 HN2         -3.2430    -0.3700    -2.3120 hn         1 MDL       0.425000
     42 H6          -3.9490    -1.1540     0.3870 h1         1 MDL       0.074700
     43 H551        -4.5880     1.3020     0.6150 hc         1 MDL       0.053700
     44 H552        -4.4160     1.4550    -1.1200 hc         1 MDL       0.053700
     45 H60         -6.3760    -0.0760     1.6050 ha         1 MDL       0.108000
     46 H64         -6.0990     0.4550    -2.6290 ha         1 MDL       0.108000
     47 H61         -8.6570    -0.9640     1.3490 ha         1 MDL       0.110000
     48 H63         -8.3810    -0.4270    -2.8900 ha         1 MDL       0.110000
     49 H62         -9.6730    -1.1460    -0.9050 ha         1 MDL       0.110000
     50 H11         -2.8040    -2.6380    -2.6810 h1         1 MDL       0.037700
     51 H12         -1.7720    -2.1300    -1.3410 h1         1 MDL       0.037700
     52 H13         -3.2770    -3.0010    -1.0280 h1         1 MDL       0.037700
     53 H18         -0.5080     1.6830     1.5680 h1         1 MDL       0.072700
     54 H151        -0.0020     1.0810     3.8100 hc         1 MDL       0.066700
     55 H152        -0.1210    -0.6440     3.4700 hc         1 MDL       0.066700
     56 H121        -2.4310     1.3090     3.8250 hc         1 MDL       0.057200
     57 H122        -2.2200    -0.2610     4.6020 hc         1 MDL       0.057200
     58 H111        -3.7740    -0.0740     2.4000 h1         1 MDL       0.054200
     59 H112        -2.6650    -1.4440     2.5360 h1         1 MDL       0.054200
     60 HN3          1.5230     1.5060     0.6850 hn         1 MDL       0.342500
     61 H25          2.2880    -0.4340    -1.0180 h1         1 MDL       0.081700
     62 H261         4.2190     0.9920     0.8700 hc         1 MDL       0.065200
     63 H262         4.6290     0.2610    -0.6660 hc         1 MDL       0.065200
     64 H30          3.7280     1.5900    -2.9870 h4         1 MDL       0.218000
     65 HN33         2.9780     3.9290    -3.3770 hn         1 MDL       0.355000
     66 H34          2.1770     6.1760    -1.8710 ha         1 MDL       0.116000
     67 H35          1.8530     6.8860     0.4760 ha         1 MDL       0.113000
     68 H36          2.3060     5.3410     2.3410 ha         1 MDL       0.113000
     69 H37          3.0960     3.0500     1.9250 ha         1 MDL       0.116000
@<TRIPOS>BOND
     1     1     2 1   
     2     1    12 1   
     3     1    41 1   
     4     2     3 1   
     5     2     5 1   
     6     2    42 1   
     7     3     4 2   
     8     3    13 1   
     9     5     6 1   
    10     5    43 1   
    11     5    44 1   
    12     6     7 ar  
    13     6     8 ar  
    14     7     9 ar  
    15     7    45 1   
    16     8    10 ar  
    17     8    46 1   
    18     9    11 ar  
    19     9    47 1   
    20    10    11 ar  
    21    10    48 1   
    22    11    49 1   
    23    12    50 1   
    24    12    51 1   
    25    12    52 1   
    26    13    14 1   
    27    13    19 1   
    28    14    15 1   
    29    14    17 1   
    30    14    53 1   
    31    15    16 2   
    32    15    20 1   
    33    17    18 1   
    34    17    54 1   
    35    17    55 1   
    36    18    19 1   
    37    18    56 1   
    38    18    57 1   
    39    19    58 1   
    40    19    59 1   
    41    20    21 1   
    42    20    60 1   
    43    21    22 1   
    44    21    32 1   
    45    21    61 1   
    46    22    23 1   
    47    22    62 1   
    48    22    63 1   
    49    23    24 2   
    50    23    25 1   
    51    24    27 1   
    52    24    64 1   
    53    25    26 ar  
    54    25    31 ar  
    55    26    27 1   
    56    26    28 ar  
    57    27    65 1   
    58    28    29 ar  
    59    28    66 1   
    60    29    30 ar  
    61    29    67 1   
    62    30    31 ar  
    63    30    68 1   
    64    31    69 1   
    65    32    33 2   
    66    32    34 1   
    67    34    35 1   
    68    34    36 1   
    69    34    37 1   
    70    37    38 1   
    71    37    39 1   
    72    37    40 1   
@<TRIPOS>SUBSTRUCTURE
     1 MDL         1 TEMP              0 ****  ****    0 ROOT
