@<TRIPOS>MOLECULE
MDM
   48    49     1     0     0
SMALL
No Charge or Current Charge


@<TRIPOS>ATOM
      1 C1          -0.4540     1.0570    -1.3960 c6         1 MDM       0.354300
      2 C2          -1.4160     1.1100    -2.6420 c6         1 MDM       0.125300
      3 C3          -1.3820    -0.2620    -3.3830 c6         1 MDM       0.141300
      4 C4           0.0850    -0.6680    -3.7340 c6         1 MDM       0.148300
      5 C5           0.9320    -0.6540    -2.4280 c6         1 MDM       0.170300
      6 C6           2.4340    -1.0090    -2.6350 c3         1 MDM       0.168600
      7 O2          -1.0510     2.1540    -3.5830 oh         1 MDM      -0.692000
      8 O3          -2.1780    -0.1900    -4.5800 oh         1 MDM      -0.654000
      9 O4           0.0950    -1.9590    -4.3770 oh         1 MDM      -0.726000
     10 O5           0.8690     0.6590    -1.8070 os         1 MDM      -0.456000
     11 O6           3.1770    -0.9750    -1.3960 oh         1 MDM      -0.719000
     12 C8           1.4050     0.4620     2.6890 c6         1 MDM       0.349300
     13 C9           1.0800     0.1800     1.1810 c6         1 MDM       0.128300
     14 C10         -0.4640     0.3740     0.9650 c6         1 MDM       0.189300
     15 C11         -1.2520    -0.5500     1.9430 c6         1 MDM       0.133300
     16 C12         -0.8190    -0.2570     3.4120 c6         1 MDM       0.144300
     17 C13         -1.5100    -1.2160     4.4390 c3         1 MDM       0.168600
     18 O1           1.1390     1.8380     3.0270 os         1 MDM      -0.478000
     19 O7           1.5190    -1.1440     0.7720 oh         1 MDM      -0.702000
     20 O8          -0.9230     0.1270    -0.3970 os         1 MDM      -0.470000
     21 O9          -2.6740    -0.3860     1.7510 oh         1 MDM      -0.720000
     22 O10          0.6230    -0.4020     3.5490 os         1 MDM      -0.454000
     23 O11         -1.0920    -0.9950     5.8010 oh         1 MDM      -0.707000
     24 H1          -0.4100     2.0660    -0.9570 h2         1 MDM       0.074700
     25 H2          -2.4380     1.2810    -2.2740 h1         1 MDM       0.048700
     26 H3          -1.7960    -1.0260    -2.7060 h1         1 MDM       0.063700
     27 H4           0.5040     0.0900    -4.4140 h1         1 MDM       0.068700
     28 H5           0.5150    -1.4020    -1.7370 h1         1 MDM       0.067700
     29 H61          2.4990    -2.0090    -3.0840 h1         1 MDM       0.036700
     30 H62          2.8600    -0.2960    -3.3540 h1         1 MDM       0.036700
     31 HO2         -1.1440     3.0200    -3.1210 ho         1 MDM       0.504000
     32 HO3         -2.0860     0.7470    -4.8730 ho         1 MDM       0.447000
     33 HO4         -0.6990    -1.9570    -4.9660 ho         1 MDM       0.522000
     34 HO6          4.1290    -1.0850    -1.6350 ho         1 MDM       0.503000
     35 H8           2.4740     0.2570     2.8520 h2         1 MDM       0.067700
     36 H9           1.6120     0.9460     0.5990 h1         1 MDM       0.084700
     37 H10         -0.7140     1.4150     1.2200 h1         1 MDM       0.076700
     38 H11         -0.9740    -1.5900     1.7160 h1         1 MDM       0.066700
     39 H12         -1.1020     0.7730     3.6740 h1         1 MDM       0.068700
     40 H6'1        -2.5970    -1.0820     4.3600 h1         1 MDM       0.024700
     41 H6'2        -1.2880    -2.2510     4.1420 h1         1 MDM       0.024700
     42 H7'1         1.3430     3.3310     4.4750 h1         1 MDM       0.036700
     43 H7'2         1.0560     1.7020     5.1210 h1         1 MDM       0.036700
     44 H7'3         2.6510     2.1280     4.4510 h1         1 MDM       0.036700
     45 H13          2.0740    -1.0200    -0.0510 ho         1 MDM       0.504000
     46 H14         -2.8050    -0.3710     0.7730 ho         1 MDM       0.506000
     47 H15         -1.5260    -1.6890     6.3500 ho         1 MDM       0.502000
     48 C7           1.5680     2.2670     4.3310 c3         1 MDM       0.148900
@<TRIPOS>BOND
     1     1     2 1   
     2     1    10 1   
     3     1    20 1   
     4     1    24 1   
     5     2     3 1   
     6     2     7 1   
     7     2    25 1   
     8     3     4 1   
     9     3     8 1   
    10     3    26 1   
    11     4     5 1   
    12     4     9 1   
    13     4    27 1   
    14     5     6 1   
    15     5    10 1   
    16     5    28 1   
    17     6    11 1   
    18     6    29 1   
    19     6    30 1   
    20     7    31 1   
    21     8    32 1   
    22     9    33 1   
    23    11    34 1   
    24    12    13 1   
    25    12    18 1   
    26    12    22 1   
    27    12    35 1   
    28    13    14 1   
    29    13    19 1   
    30    13    36 1   
    31    14    15 1   
    32    14    20 1   
    33    14    37 1   
    34    15    16 1   
    35    15    21 1   
    36    15    38 1   
    37    16    17 1   
    38    16    22 1   
    39    16    39 1   
    40    17    23 1   
    41    17    40 1   
    42    17    41 1   
    43    18    48 1   
    44    19    45 1   
    45    21    46 1   
    46    23    47 1   
    47    42    48 1   
    48    43    48 1   
    49    44    48 1   
@<TRIPOS>SUBSTRUCTURE
     1 MDM         1 TEMP              0 ****  ****    0 ROOT
