@<TRIPOS>MOLECULE
MDM
   48    49     1     0     0
SMALL
bcc


@<TRIPOS>ATOM
      1 C1          -0.7060     0.9630    -1.3490 c6         1 MDM       0.307900
      2 C2          -1.6310     0.6550    -2.5300 c6         1 MDM       0.102100
      3 C3          -1.0950    -0.5570    -3.2870 c6         1 MDM       0.118100
      4 C4           0.3610    -0.3410    -3.6870 c6         1 MDM       0.125100
      5 C5           1.1810    -0.0020    -2.4410 c6         1 MDM       0.147100
      6 C6           2.6110     0.3560    -2.7860 c3         1 MDM       0.145400
      7 O2          -1.6760     1.7460    -3.4140 oh         1 MDM      -0.569800
      8 O3          -1.8250    -0.8280    -4.4600 oh         1 MDM      -0.591800
      9 O4           0.9080    -1.5080    -4.2550 oh         1 MDM      -0.603800
     10 O5           0.6190     1.1140    -1.7710 os         1 MDM      -0.409600
     11 O6           3.3320     0.5560    -1.5930 oh         1 MDM      -0.596800
     12 C8           1.3230    -0.3830     2.6190 c6         1 MDM       0.302900
     13 C9           0.9170    -0.5650     1.1540 c6         1 MDM       0.105100
     14 C10         -0.3730     0.2020     0.8820 c6         1 MDM       0.166100
     15 C11         -1.4580    -0.1760     1.8820 c6         1 MDM       0.110100
     16 C12         -0.9200    -0.0120     3.3100 c6         1 MDM       0.121100
     17 C13         -1.9010    -0.5250     4.3410 c3         1 MDM       0.145400
     18 O1           1.7340     0.9370     2.7790 os         1 MDM      -0.431600
     19 O7           0.6780    -1.9240     0.8830 oh         1 MDM      -0.579800
     20 O8          -0.8600    -0.0550    -0.4160 os         1 MDM      -0.423600
     21 O9          -2.5570     0.6800     1.6690 oh         1 MDM      -0.597800
     22 O10          0.2860    -0.7380     3.4820 os         1 MDM      -0.407600
     23 O11         -1.4180    -0.2170     5.6260 oh         1 MDM      -0.584800
     24 H1          -0.9740     1.9340    -0.9090 h2         1 MDM       0.074700
     25 H2          -2.6290     0.4230    -2.1330 h1         1 MDM       0.048700
     26 H3          -1.1270    -1.4170    -2.6040 h1         1 MDM       0.063700
     27 H4           0.4210     0.5020    -4.3910 h1         1 MDM       0.068700
     28 H5           1.1880    -0.8820    -1.7830 h1         1 MDM       0.067700
     29 H61          3.0370    -0.4570    -3.3820 h1         1 MDM       0.036700
     30 H62          2.6120     1.2560    -3.4180 h1         1 MDM       0.036700
     31 HO2         -2.1530     2.4650    -2.9890 ho         1 MDM       0.405000
     32 HO3         -2.6350    -1.2870    -4.2210 ho         1 MDM       0.408000
     33 HO4          0.3510    -1.7630    -4.9980 ho         1 MDM       0.423000
     34 HO6          4.2530     0.7050    -1.8230 ho         1 MDM       0.404000
     35 H8           2.1450    -1.0720     2.8660 h2         1 MDM       0.067700
     36 H9           1.7200    -0.1680     0.5200 h1         1 MDM       0.084700
     37 H10         -0.1600     1.2730     1.0060 h1         1 MDM       0.076700
     38 H11         -1.7390    -1.2260     1.7240 h1         1 MDM       0.066700
     39 H12         -0.7570     1.0610     3.4880 h1         1 MDM       0.068700
     40 H6'1        -2.8750    -0.0550     4.1560 h1         1 MDM       0.024700
     41 H6'2        -2.0340    -1.6070     4.2010 h1         1 MDM       0.024700
     42 H7'1         2.7040     2.2270     4.0030 h1         1 MDM       0.036700
     43 H7'2         1.5330     1.1990     4.8440 h1         1 MDM       0.036700
     44 H7'3         3.0820     0.5220     4.3090 h1         1 MDM       0.036700
     45 H13          1.5220    -2.3830     0.8460 ho         1 MDM       0.405000
     46 H14         -3.3690     0.1830     1.7950 ho         1 MDM       0.407000
     47 H15         -2.0810    -0.4920     6.2660 ho         1 MDM       0.403000
     48 C7           2.2830     1.2240     4.0490 c3         1 MDM       0.125700
@<TRIPOS>BOND
     1     1     2 1   
     2     1    10 1   
     3     1    20 1   
     4     1    24 1   
     5     2     3 1   
     6     2     7 1   
     7     2    25 1   
     8     3     4 1   
     9     3     8 1   
    10     3    26 1   
    11     4     5 1   
    12     4     9 1   
    13     4    27 1   
    14     5     6 1   
    15     5    10 1   
    16     5    28 1   
    17     6    11 1   
    18     6    29 1   
    19     6    30 1   
    20     7    31 1   
    21     8    32 1   
    22     9    33 1   
    23    11    34 1   
    24    12    13 1   
    25    12    18 1   
    26    12    22 1   
    27    12    35 1   
    28    13    14 1   
    29    13    19 1   
    30    13    36 1   
    31    14    15 1   
    32    14    20 1   
    33    14    37 1   
    34    15    16 1   
    35    15    21 1   
    36    15    38 1   
    37    16    17 1   
    38    16    22 1   
    39    16    39 1   
    40    17    23 1   
    41    17    40 1   
    42    17    41 1   
    43    18    48 1   
    44    19    45 1   
    45    21    46 1   
    46    23    47 1   
    47    42    48 1   
    48    43    48 1   
    49    44    48 1   
@<TRIPOS>SUBSTRUCTURE
     1 MDM         1 TEMP              0 ****  ****    0 ROOT
