@<TRIPOS>MOLECULE
MDN
   11    10     1     0     0
SMALL
abcg2


@<TRIPOS>ATOM
      1 O3           0.2300    -1.1170     2.6990 o          1 MDN      -0.995833
      2 P1           0.1010     0.0040     1.6410 p5         1 MDN       1.383500
      3 O1           1.2110     1.0580     1.7860 o          1 MDN      -0.995833
      4 O2          -1.3130     0.6040     1.6050 o          1 MDN      -0.995833
      5 C4           0.3850    -0.8550     0.0220 c3         1 MDN      -0.737400
      6 P5           0.0230    -0.0060    -1.5880 p5         1 MDN       1.383500
      7 O6           0.6420     1.3980    -1.5260 o          1 MDN      -0.995833
      8 O7           0.7030    -0.8960    -2.6540 o          1 MDN      -0.995833
      9 O8          -1.5070     0.0060    -1.7430 o          1 MDN      -0.995833
     10 H41          1.4330    -1.1830     0.0120 hc         1 MDN      -0.027300
     11 H42         -0.1980    -1.7870     0.0240 hc         1 MDN      -0.027300
@<TRIPOS>BOND
     1     1     2 1   
     2     2     3 1   
     3     2     4 1   
     4     2     5 1   
     5     5     6 1   
     6     5    10 1   
     7     5    11 1   
     8     6     7 1   
     9     6     8 1   
    10     6     9 1   
@<TRIPOS>SUBSTRUCTURE
     1 MDN         1 TEMP              0 ****  ****    0 ROOT
