@<TRIPOS>MOLECULE
MDN
   11    10     1     0     0
SMALL
No Charge or Current Charge


@<TRIPOS>ATOM
      1 O3           0.1050    -0.9620     2.6060 o          1 MDN      -0.995833
      2 P1           0.1010     0.0150     1.4790 p5         1 MDN       1.383500
      3 O1           1.2230     0.9670     1.7180 o          1 MDN      -0.995833
      4 O2          -1.2160     0.7100     1.4510 o          1 MDN      -0.995833
      5 C4           0.4350    -0.9740     0.0210 c3         1 MDN      -0.737400
      6 P5           0.0100    -0.0030    -1.4250 p5         1 MDN       1.383500
      7 O6           0.5140     1.3980    -1.3840 o          1 MDN      -0.995833
      8 O7           0.6610    -0.7150    -2.5630 o          1 MDN      -0.995833
      9 O8          -1.4620    -0.0530    -1.6590 o          1 MDN      -0.995833
     10 H41          1.4940    -1.2590    -0.0040 hc         1 MDN      -0.027300
     11 H42         -0.1540    -1.8980     0.0380 hc         1 MDN      -0.027300
@<TRIPOS>BOND
     1     1     2 1   
     2     2     3 1   
     3     2     4 1   
     4     2     5 1   
     5     5     6 1   
     6     5    10 1   
     7     5    11 1   
     8     6     7 1   
     9     6     8 1   
    10     6     9 1   
@<TRIPOS>SUBSTRUCTURE
     1 MDN         1 TEMP              0 ****  ****    0 ROOT
