@<TRIPOS>MOLECULE
MDO
   24    24     1     0     0
SMALL
bcc


@<TRIPOS>ATOM
      1 N            1.5850     3.0120     0.5390 n8         1 MDO      -0.866800
      2 CA           0.4220     2.1560     0.4020 c3         1 MDO       0.141200
      3 C1           0.8600     0.7320     0.2410 cc         1 MDO       0.483900
      4 CB          -0.3850     2.5860    -0.8240 c3         1 MDO      -0.093100
      5 N2           2.0190     0.3740    -0.1880 nd         1 MDO      -0.628300
      6 CA2          2.0050    -1.0200    -0.2150 cd         1 MDO       0.012400
      7 C2           0.6720    -1.4870     0.2580 c          1 MDO       0.681700
      8 O2           0.2350    -2.6110     0.3870 o          1 MDO      -0.584500
      9 CB2          2.9990    -1.8200    -0.5950 c2         1 MDO      -0.156000
     10 N3           0.0180    -0.3200     0.5540 n          1 MDO      -0.383300
     11 CA3         -1.3730    -0.2990     0.9300 c3         1 MDO      -0.050000
     12 C           -2.3330    -0.6040    -0.2460 c          1 MDO       0.925600
     13 O           -1.8410    -0.6430    -1.3840 o          1 MDO      -0.821300
     14 OXT         -3.5200    -0.7620     0.0880 o          1 MDO      -0.821300
     15 H            1.2620     3.9620     0.6730 hn         1 MDO       0.330800
     16 H2           2.0920     2.7710     1.3820 hn         1 MDO       0.330800
     17 HCA         -0.2420     2.2030     1.2760 h1         1 MDO       0.026700
     18 HB1         -0.7650     3.5980    -0.6800 hc         1 MDO       0.053367
     19 HB2          0.2510     2.5780    -1.7100 hc         1 MDO       0.053367
     20 HB3         -1.2320     1.9290    -1.0070 hc         1 MDO       0.053367
     21 HB21         3.9460    -1.4210    -0.9290 ha         1 MDO       0.118000
     22 HB22         2.8800    -2.8940    -0.5780 ha         1 MDO       0.118000
     23 HA31        -1.5280    -1.0250     1.7300 h1         1 MDO       0.037700
     24 HA32        -1.6150     0.6760     1.3530 h1         1 MDO       0.037700
@<TRIPOS>BOND
     1     1     2 1   
     2     1    15 1   
     3     1    16 1   
     4     2     3 1   
     5     2     4 1   
     6     2    17 1   
     7     3     5 2   
     8     3    10 1   
     9     4    18 1   
    10     4    19 1   
    11     4    20 1   
    12     5     6 1   
    13     6     7 1   
    14     6     9 2   
    15     7     8 2   
    16     7    10 1   
    17     9    21 1   
    18     9    22 1   
    19    10    11 1   
    20    11    12 1   
    21    11    23 1   
    22    11    24 1   
    23    12    13 1   
    24    12    14 1   
@<TRIPOS>SUBSTRUCTURE
     1 MDO         1 TEMP              0 ****  ****    0 ROOT
