@<TRIPOS>MOLECULE
MDO
   24    24     1     0     0
SMALL
No Charge or Current Charge


@<TRIPOS>ATOM
      1 N            1.6210     3.1360     0.6840 n8         1 MDO      -0.866800
      2 CA           0.4950     2.2110     0.3520 c3         1 MDO       0.141200
      3 C1           0.8890     0.7280     0.1800 cc         1 MDO       0.483900
      4 CB          -0.2550     2.7550    -0.8810 c3         1 MDO      -0.093100
      5 N2           2.1080     0.3340    -0.2320 nd         1 MDO      -0.628300
      6 CA2          1.9610    -1.0440    -0.2230 cd         1 MDO       0.012400
      7 C2           0.6340    -1.5270     0.1980 c          1 MDO       0.681700
      8 O2           0.1800    -2.6610     0.3140 o          1 MDO      -0.584500
      9 CB2          2.9670    -1.8910    -0.5780 c2         1 MDO      -0.156000
     10 N3           0.0120    -0.3250     0.4420 n          1 MDO      -0.383300
     11 CA3         -1.4260    -0.2370     0.8510 c3         1 MDO      -0.050000
     12 C           -2.4400    -0.9090    -0.1170 c          1 MDO       0.925600
     13 O           -2.3310    -0.6970    -1.3200 o          1 MDO      -0.821300
     14 OXT         -3.3190    -1.6220     0.3560 o          1 MDO      -0.821300
     15 H            1.2420     4.0580     0.9220 hn         1 MDO       0.330800
     16 H2           2.0800     2.8140     1.5420 hn         1 MDO       0.330800
     17 HCA         -0.1890     2.2690     1.2080 h1         1 MDO       0.026700
     18 HB1         -0.5820     3.7890    -0.7170 hc         1 MDO       0.053367
     19 HB2          0.3880     2.7310    -1.7690 hc         1 MDO       0.053367
     20 HB3         -1.1450     2.1490    -1.0900 hc         1 MDO       0.053367
     21 HB21         3.9430    -1.5190    -0.8880 ha         1 MDO       0.118000
     22 HB22         2.8370    -2.9720    -0.5670 ha         1 MDO       0.118000
     23 HA31        -1.5310    -0.7090     1.8360 h1         1 MDO       0.037700
     24 HA32        -1.7280     0.8100     0.9550 h1         1 MDO       0.037700
@<TRIPOS>BOND
     1     1     2 1   
     2     1    15 1   
     3     1    16 1   
     4     2     3 1   
     5     2     4 1   
     6     2    17 1   
     7     3     5 2   
     8     3    10 1   
     9     4    18 1   
    10     4    19 1   
    11     4    20 1   
    12     5     6 1   
    13     6     7 1   
    14     6     9 2   
    15     7     8 2   
    16     7    10 1   
    17     9    21 1   
    18     9    22 1   
    19    10    11 1   
    20    11    12 1   
    21    11    23 1   
    22    11    24 1   
    23    12    13 1   
    24    12    14 1   
@<TRIPOS>SUBSTRUCTURE
     1 MDO         1 TEMP              0 ****  ****    0 ROOT
