@<TRIPOS>MOLECULE
MDP
   38    38     1     0     0
SMALL
bcc


@<TRIPOS>ATOM
      1 C1          38.7920    51.5490    49.4920 c6         1 MDP       0.314900
      2 O1          39.7540    52.3060    48.8550 oh         1 MDP      -0.533800
      3 C2          37.4050    51.9970    49.0230 c6         1 MDP       0.085700
      4 N2          37.1470    53.3870    49.2760 n          1 MDP      -0.515800
      5 C3          36.3290    51.0730    49.6240 c6         1 MDP       0.149100
      6 O3          35.0770    51.3700    49.0660 os         1 MDP      -0.353600
      7 C4          36.6680    49.6130    49.3400 c6         1 MDP       0.104100
      8 O4          35.7500    48.7920    50.0230 oh         1 MDP      -0.590800
      9 C5          38.1020    49.3250    49.8050 c6         1 MDP       0.137100
     10 O5          39.0000    50.1950    49.1540 os         1 MDP      -0.456600
     11 C6          38.5510    47.8990    49.5680 c3         1 MDP       0.139400
     12 O6          38.4210    47.5770    48.2030 oh         1 MDP      -0.570800
     13 C7          34.2090    52.1550    49.8610 c3         1 MDP       0.010100
     14 C8          33.2600    52.9870    48.9680 c          1 MDP       0.947600
     15 O8          32.4790    53.7300    49.6010 o          1 MDP      -0.832300
     16 O9          33.3450    52.8650    47.7340 o          1 MDP      -0.832300
     17 C9          33.4220    51.2820    50.8350 c3         1 MDP      -0.093100
     18 C10         36.9920    54.3040    48.2140 c          1 MDP       1.040600
     19 O10         36.9050    55.5070    48.5410 o          1 MDP      -0.838300
     20 O11         36.9430    53.8420    47.0530 o          1 MDP      -0.838300
     21 C11         37.3040    53.8890    50.6180 c3         1 MDP       0.128300
     22 H1          38.8710    51.6450    50.5910 h2         1 MDP      -0.014300
     23 HO1         40.5890    52.2200    49.3280 ho         1 MDP       0.369000
     24 H2          37.3770    51.8700    47.9380 h1         1 MDP       0.127700
     25 H3          36.3120    51.1940    50.7200 h1         1 MDP       0.011700
     26 H4          36.6090    49.4560    48.2550 h1         1 MDP       0.076700
     27 HO4         35.7070    47.9410    49.5780 ho         1 MDP       0.377000
     28 H5          38.1430    49.4840    50.8970 h1         1 MDP       0.022700
     29 H61         39.5890    47.8000    49.9140 h1         1 MDP       0.007200
     30 H62         37.9480    47.2410    50.2050 h1         1 MDP       0.007200
     31 HO6         38.6180    46.6430    48.0930 ho         1 MDP       0.375000
     32 H7          34.7900    52.8760    50.4490 h1         1 MDP       0.036700
     33 H91         32.7840    51.8980    51.4650 hc         1 MDP       0.008033
     34 H92         32.7890    50.5680    50.3040 hc         1 MDP       0.008033
     35 H93         34.0890    50.7160    51.4860 hc         1 MDP       0.008033
     36 H111        38.2850    54.3430    50.8030 h1         1 MDP      -0.008300
     37 H112        36.5480    54.6370    50.8510 h1         1 MDP      -0.008300
     38 H113        37.1820    53.0820    51.3410 h1         1 MDP      -0.008300
@<TRIPOS>BOND
     1     1     2 1   
     2     1     3 1   
     3     1    10 1   
     4     1    22 1   
     5     2    23 1   
     6     3     4 1   
     7     3     5 1   
     8     3    24 1   
     9     4    18 1   
    10     4    21 1   
    11     5     6 1   
    12     5     7 1   
    13     5    25 1   
    14     6    13 1   
    15     7     8 1   
    16     7     9 1   
    17     7    26 1   
    18     8    27 1   
    19     9    10 1   
    20     9    11 1   
    21     9    28 1   
    22    11    12 1   
    23    11    29 1   
    24    11    30 1   
    25    12    31 1   
    26    13    14 1   
    27    13    17 1   
    28    13    32 1   
    29    14    15 1   
    30    14    16 1   
    31    17    33 1   
    32    17    34 1   
    33    17    35 1   
    34    18    19 1   
    35    18    20 1   
    36    21    36 1   
    37    21    37 1   
    38    21    38 1   
@<TRIPOS>SUBSTRUCTURE
     1 MDP         1 TEMP              0 ****  ****    0 ROOT
