@<TRIPOS>MOLECULE
MDP
   38    38     1     0     0
SMALL
No Charge or Current Charge


@<TRIPOS>ATOM
      1 C1          38.7960    51.5100    49.6200 c6         1 MDP       0.361300
      2 O1          39.8440    52.2500    49.0270 oh         1 MDP      -0.596000
      3 C2          37.3880    51.9860    49.1280 c6         1 MDP       0.085700
      4 N2          37.1440    53.4260    49.4990 n          1 MDP      -0.448800
      5 C3          36.2840    50.9870    49.6380 c6         1 MDP       0.172300
      6 O3          34.9630    51.2430    49.0670 os         1 MDP      -0.400000
      7 C4          36.6840    49.5080    49.3060 c6         1 MDP       0.127300
      8 O4          35.7290    48.5690    49.8640 oh         1 MDP      -0.713000
      9 C5          38.1320    49.2090    49.8060 c6         1 MDP       0.160300
     10 O5          39.0500    50.1650    49.2260 os         1 MDP      -0.503000
     11 C6          38.6290    47.7690    49.4330 c3         1 MDP       0.162600
     12 O6          38.6930    47.5220    48.0160 oh         1 MDP      -0.693000
     13 C7          34.1300    52.3460    49.5460 c3         1 MDP       0.033300
     14 C8          32.8570    52.5680    48.6490 c          1 MDP       0.737000
     15 O8          32.1790    53.5690    48.8500 o          1 MDP      -0.727000
     16 O9          32.6000    51.7740    47.7500 o          1 MDP      -0.727000
     17 C9          33.7310    52.0680    51.0200 c3         1 MDP      -0.093100
     18 C10         36.9970    54.4370    48.5290 c          1 MDP       0.763000
     19 O10         36.8410    55.5880    48.9040 o          1 MDP      -0.733000
     20 O11         37.0240    54.1270    47.3490 o          1 MDP      -0.733000
     21 C11         37.1320    53.7830    50.9360 c3         1 MDP       0.128300
     22 H1          38.8680    51.5850    50.7150 h2         1 MDP      -0.014300
     23 HO1         40.4860    51.5600    48.7680 ho         1 MDP       0.408000
     24 H2          37.4060    51.8870    48.0360 h1         1 MDP       0.127700
     25 H3          36.2220    51.0600    50.7310 h1         1 MDP       0.011700
     26 H4          36.6910    49.4160    48.2090 h1         1 MDP       0.076700
     27 HO4         35.7350    47.7770    49.2790 ho         1 MDP       0.476000
     28 H5          38.1690    49.3100    50.9010 h1         1 MDP       0.022700
     29 H61         39.6260    47.6350    49.8740 h1         1 MDP       0.007200
     30 H62         37.9700    47.0330    49.9110 h1         1 MDP       0.007200
     31 HO6         39.1550    46.6620    47.8970 ho         1 MDP       0.474000
     32 H7          34.6750    53.2940    49.5090 h1         1 MDP       0.036700
     33 H91         33.0150    52.8200    51.3720 hc         1 MDP       0.008033
     34 H92         33.2610    51.0820    51.1160 hc         1 MDP       0.008033
     35 H93         34.5960    52.1130    51.6900 hc         1 MDP       0.008033
     36 H111        37.9660    54.4610    51.1540 h1         1 MDP      -0.008300
     37 H112        36.1840    54.2750    51.1880 h1         1 MDP      -0.008300
     38 H113        37.2360    52.8860    51.5590 h1         1 MDP      -0.008300
@<TRIPOS>BOND
     1     1     2 1   
     2     1     3 1   
     3     1    10 1   
     4     1    22 1   
     5     2    23 1   
     6     3     4 1   
     7     3     5 1   
     8     3    24 1   
     9     4    18 1   
    10     4    21 1   
    11     5     6 1   
    12     5     7 1   
    13     5    25 1   
    14     6    13 1   
    15     7     8 1   
    16     7     9 1   
    17     7    26 1   
    18     8    27 1   
    19     9    10 1   
    20     9    11 1   
    21     9    28 1   
    22    11    12 1   
    23    11    29 1   
    24    11    30 1   
    25    12    31 1   
    26    13    14 1   
    27    13    17 1   
    28    13    32 1   
    29    14    15 1   
    30    14    16 1   
    31    17    33 1   
    32    17    34 1   
    33    17    35 1   
    34    18    19 1   
    35    18    20 1   
    36    21    36 1   
    37    21    37 1   
    38    21    38 1   
@<TRIPOS>SUBSTRUCTURE
     1 MDP         1 TEMP              0 ****  ****    0 ROOT
