@<TRIPOS>MOLECULE
MDS
   55    57     1     0     0
SMALL
abcg2


@<TRIPOS>ATOM
      1 O1           2.5020    -0.0350     3.2050 oh         1 MDS      -0.689000
      2 C1           2.0020    -1.0410     2.3810 c5         1 MDS       0.083300
      3 C2           1.8220    -0.5090     0.9590 c5         1 MDS       0.320300
      4 O2           0.8860    -1.3650     0.3620 os         1 MDS      -0.459000
      5 C3           0.1860    -2.1130     1.3630 c5         1 MDS       0.166300
      6 C4          -1.2970    -2.0810     1.0650 c3         1 MDS       0.205800
      7 N1          -1.5320    -2.7470    -0.2170 n7         1 MDS      -0.883300
      8 S1          -3.0690    -2.8840    -0.7460 s6         1 MDS       1.290900
      9 O3          -3.0210    -3.4620    -2.0660 o          1 MDS      -0.534500
     10 O4          -3.8660    -3.4810     0.3020 o          1 MDS      -0.534500
     11 N2          -3.6720    -1.3150    -0.8590 ns         1 MDS      -0.607300
     12 C5          -3.0800    -0.3430    -1.6230 c          1 MDS       0.582100
     13 O5          -2.1090    -0.5740    -2.3100 o          1 MDS      -0.565100
     14 C6          -3.6940     1.0460    -1.4700 c3         1 MDS       0.098500
     15 N3          -3.5490     1.8740    -2.6390 n8         1 MDS      -0.994200
     16 C7          -3.0260     1.7030    -0.2520 c3         1 MDS      -0.062400
     17 C8          -3.6750     3.0300     0.1050 c3         1 MDS       0.070600
     18 S2          -2.8160     3.7490     1.5330 ss         1 MDS      -0.442000
     19 C9          -3.7660     5.2710     1.7320 c3         1 MDS       0.043900
     20 C10          0.5780    -1.4990     2.7010 c5         1 MDS       0.108300
     21 O6          -0.2510    -0.4050     2.9850 oh         1 MDS      -0.709000
     22 N4           3.0300    -0.4970     0.1810 na         1 MDS      -0.288300
     23 C11          3.8140    -1.5700    -0.1500 cc         1 MDS       0.407700
     24 N5           4.8380    -1.2530    -0.8830 nd         1 MDS      -0.548100
     25 C12          4.7310     0.1040    -1.0520 ca         1 MDS      -0.102600
     26 C13          5.5160     1.0490    -1.7390 ca         1 MDS       0.453900
     27 N6           5.1210     2.3270    -1.7140 nb         1 MDS      -0.302000
     28 C14          4.0160     2.6520    -1.0500 ca         1 MDS       0.186900
     29 N7           3.2040     1.8610    -0.3690 nb         1 MDS      -0.218000
     30 C15          3.6090     0.5940    -0.4020 ca         1 MDS       0.145500
     31 N8           6.6250     0.7200    -2.4010 nv         1 MDS      -1.064900
     32 HO1          2.8740    -0.4360     3.9970 ho         1 MDS       0.517000
     33 H1           2.6580    -1.9220     2.3620 h1         1 MDS       0.054700
     34 H2           1.4640     0.5260     0.9850 h2         1 MDS       0.124700
     35 H3           0.5310    -3.1530     1.3340 h1         1 MDS       0.073700
     36 H41         -1.6560    -1.0490     1.0610 h1         1 MDS       0.072200
     37 H42         -1.8260    -2.6270     1.8460 h1         1 MDS       0.072200
     38 HN1         -0.9110    -2.4460    -0.9630 hn         1 MDS       0.513000
     39 HN2         -4.4900    -1.1050    -0.2990 hn         1 MDS       0.349500
     40 H6          -4.7620     0.9300    -1.2590 h1         1 MDS       0.072700
     41 HN31        -2.5760     1.9240    -2.9150 hn         1 MDS       0.417500
     42 HN32        -4.0540     1.4770    -3.4210 hn         1 MDS       0.417500
     43 H71         -1.9640     1.8530    -0.4690 hc         1 MDS       0.062200
     44 H72         -3.0820     1.0290     0.6080 hc         1 MDS       0.062200
     45 H81         -4.7270     2.8810     0.3570 h1         1 MDS       0.067200
     46 H82         -3.6220     3.7210    -0.7360 h1         1 MDS       0.067200
     47 H91         -3.7070     5.8930     0.8400 h1         1 MDS       0.060033
     48 H92         -4.8110     5.0590     1.9570 h1         1 MDS       0.060033
     49 H93         -3.3360     5.8210     2.5680 h1         1 MDS       0.060033
     50 H10          0.5540    -2.2530     3.4980 h1         1 MDS       0.061700
     51 HO6          0.2000     0.1570     3.6260 ho         1 MDS       0.529000
     52 H11          3.5740    -2.5710     0.1760 h5         1 MDS       0.064800
     53 H14          3.7500     3.7030    -1.0720 h5         1 MDS       0.048100
     54 HN81         6.9350    -0.2340    -2.4560 hn         1 MDS       0.507500
     55 HN82         7.1440     1.4200    -2.9010 hn         1 MDS       0.507500
@<TRIPOS>BOND
     1     1     2 1   
     2     1    32 1   
     3     2     3 1   
     4     2    20 1   
     5     2    33 1   
     6     3     4 1   
     7     3    22 1   
     8     3    34 1   
     9     4     5 1   
    10     5     6 1   
    11     5    20 1   
    12     5    35 1   
    13     6     7 1   
    14     6    36 1   
    15     6    37 1   
    16     7     8 1   
    17     7    38 1   
    18     8     9 2   
    19     8    10 2   
    20     8    11 1   
    21    11    12 1   
    22    11    39 1   
    23    12    13 2   
    24    12    14 1   
    25    14    15 1   
    26    14    16 1   
    27    14    40 1   
    28    15    41 1   
    29    15    42 1   
    30    16    17 1   
    31    16    43 1   
    32    16    44 1   
    33    17    18 1   
    34    17    45 1   
    35    17    46 1   
    36    18    19 1   
    37    19    47 1   
    38    19    48 1   
    39    19    49 1   
    40    20    21 1   
    41    20    50 1   
    42    21    51 1   
    43    22    23 1   
    44    22    30 1   
    45    23    24 2   
    46    23    52 1   
    47    24    25 1   
    48    25    26 ar  
    49    25    30 ar  
    50    26    27 ar  
    51    26    31 1   
    52    27    28 ar  
    53    28    29 ar  
    54    28    53 1   
    55    29    30 ar  
    56    31    54 1   
    57    31    55 1   
@<TRIPOS>SUBSTRUCTURE
     1 MDS         1 TEMP              0 ****  ****    0 ROOT
