@<TRIPOS>MOLECULE
MDS
   55    57     1     0     0
SMALL
No Charge or Current Charge


@<TRIPOS>ATOM
      1 O1           2.0340    -0.2120     3.9520 oh         1 MDS      -0.689000
      2 C1           1.9830    -1.0940     2.8070 c5         1 MDS       0.083300
      3 C2           1.9030    -0.3390     1.4150 c5         1 MDS       0.320300
      4 O2           0.7080    -0.8170     0.7630 os         1 MDS      -0.459000
      5 C3           0.4150    -2.1210     1.3080 c5         1 MDS       0.166300
      6 C4          -1.0120    -2.5640     0.8990 c3         1 MDS       0.205800
      7 N1          -1.1420    -2.6670    -0.5710 n7         1 MDS      -0.883300
      8 S1          -2.6600    -2.7520    -1.2080 s6         1 MDS       1.290900
      9 O3          -2.4780    -3.0980    -2.6150 o          1 MDS      -0.534500
     10 O4          -3.4510    -3.6140    -0.3310 o          1 MDS      -0.534500
     11 N2          -3.2810    -1.2240    -1.1110 ns         1 MDS      -0.607300
     12 C5          -2.6540    -0.0660    -1.4480 c          1 MDS       0.582100
     13 O5          -1.4940    -0.0630    -1.8340 o          1 MDS      -0.565100
     14 C6          -3.5090     1.2440    -1.3120 c3         1 MDS       0.098500
     15 N3          -3.7230     1.9970    -2.5960 n8         1 MDS      -0.994200
     16 C7          -2.9040     2.1750    -0.2310 c3         1 MDS      -0.062400
     17 C8          -3.8040     3.3720     0.1410 c3         1 MDS       0.070600
     18 S2          -3.0300     4.3670     1.4960 ss         1 MDS      -0.442000
     19 C9          -4.3140     5.6840     1.6970 c3         1 MDS       0.043900
     20 C10          0.6590    -1.9250     2.8350 c5         1 MDS       0.108300
     21 O6          -0.3560    -1.1600     3.4920 oh         1 MDS      -0.709000
     22 N4           3.0300    -0.4880     0.4920 na         1 MDS      -0.288300
     23 C11          3.8540    -1.6120     0.3580 cc         1 MDS       0.407700
     24 N5           4.8160    -1.4120    -0.5630 nd         1 MDS      -0.548100
     25 C12          4.5660    -0.1110    -1.0090 ca         1 MDS      -0.102600
     26 C13          5.2470     0.6520    -1.9800 ca         1 MDS       0.453900
     27 N6           4.8530     1.8970    -2.2880 nb         1 MDS      -0.302000
     28 C14          3.7770     2.3660    -1.6090 ca         1 MDS       0.186900
     29 N7           3.0670     1.7070    -0.6620 nb         1 MDS      -0.218000
     30 C15          3.4870     0.4580    -0.3810 ca         1 MDS       0.145500
     31 N8           6.3250     0.1780    -2.6610 nv         1 MDS      -1.064900
     32 HO1          2.9750     0.0600     4.0820 ho         1 MDS       0.517000
     33 H1           2.8410    -1.7790     2.8290 h1         1 MDS       0.054700
     34 H2           1.8040     0.7400     1.5890 h2         1 MDS       0.124700
     35 H3           1.1310    -2.8460     0.8950 h1         1 MDS       0.073700
     36 H41         -1.7220    -1.8290     1.3040 h1         1 MDS       0.072200
     37 H42         -1.2320    -3.5280     1.3780 h1         1 MDS       0.072200
     38 HN1         -0.8880    -1.7510    -0.9560 hn         1 MDS       0.513000
     39 HN2         -4.2340    -1.2220    -0.7870 hn         1 MDS       0.349500
     40 H6          -4.5000     0.9320    -0.9510 h1         1 MDS       0.072700
     41 HN31        -2.8090     2.1970    -3.0230 hn         1 MDS       0.417500
     42 HN32        -4.1710     1.3820    -3.2890 hn         1 MDS       0.417500
     43 H71         -1.9280     2.5460    -0.5680 hc         1 MDS       0.062200
     44 H72         -2.7190     1.5860     0.6770 hc         1 MDS       0.062200
     45 H81         -4.7850     3.0090     0.4770 h1         1 MDS       0.067200
     46 H82         -3.9550     4.0160    -0.7350 h1         1 MDS       0.067200
     47 H91         -4.4340     6.2350     0.7550 h1         1 MDS       0.060033
     48 H92         -5.2740     5.2310     1.9740 h1         1 MDS       0.060033
     49 H93         -4.0080     6.3840     2.4850 h1         1 MDS       0.060033
     50 H10          0.8030    -2.8900     3.3430 h1         1 MDS       0.061700
     51 HO6          0.1860    -0.4910     3.9890 ho         1 MDS       0.529000
     52 H11          3.7050    -2.5190     0.9300 h5         1 MDS       0.064800
     53 H14          3.4490     3.3750    -1.8500 h5         1 MDS       0.048100
     54 HN81         6.4940    -0.8230    -2.6030 hn         1 MDS       0.507500
     55 HN82         6.5790     0.6330    -3.5330 hn         1 MDS       0.507500
@<TRIPOS>BOND
     1     1     2 1   
     2     1    32 1   
     3     2     3 1   
     4     2    20 1   
     5     2    33 1   
     6     3     4 1   
     7     3    22 1   
     8     3    34 1   
     9     4     5 1   
    10     5     6 1   
    11     5    20 1   
    12     5    35 1   
    13     6     7 1   
    14     6    36 1   
    15     6    37 1   
    16     7     8 1   
    17     7    38 1   
    18     8     9 2   
    19     8    10 2   
    20     8    11 1   
    21    11    12 1   
    22    11    39 1   
    23    12    13 2   
    24    12    14 1   
    25    14    15 1   
    26    14    16 1   
    27    14    40 1   
    28    15    41 1   
    29    15    42 1   
    30    16    17 1   
    31    16    43 1   
    32    16    44 1   
    33    17    18 1   
    34    17    45 1   
    35    17    46 1   
    36    18    19 1   
    37    19    47 1   
    38    19    48 1   
    39    19    49 1   
    40    20    21 1   
    41    20    50 1   
    42    21    51 1   
    43    22    23 1   
    44    22    30 1   
    45    23    24 2   
    46    23    52 1   
    47    24    25 1   
    48    25    26 ar  
    49    25    30 ar  
    50    26    27 ar  
    51    26    31 1   
    52    27    28 ar  
    53    28    29 ar  
    54    28    53 1   
    55    29    30 ar  
    56    31    54 1   
    57    31    55 1   
@<TRIPOS>SUBSTRUCTURE
     1 MDS         1 TEMP              0 ****  ****    0 ROOT
