@<TRIPOS>MOLECULE
MDW
   48    50     1     0     0
SMALL
abcg2


@<TRIPOS>ATOM
      1 C3           6.2520     2.3320    11.4160 ca         1 MDW      -0.174000
      2 C2           5.0110     2.8730    11.6980 ca         1 MDW       0.122100
      3 O1           4.4620     2.8630    12.9470 oh         1 MDW      -0.515100
      4 C7           4.2590     3.4660    10.6640 ca         1 MDW       0.115100
      5 O12          3.0500     3.9790    11.0190 os         1 MDW      -0.325100
      6 C13          2.2490     4.5620     9.9930 c3         1 MDW       0.145900
      7 C6           4.7840     3.4860     9.3830 ca         1 MDW      -0.160000
      8 C5           6.0380     2.9270     9.1050 ca         1 MDW      -0.078300
      9 C8           6.5170     2.9540     7.6660 c6         1 MDW       0.207800
     10 C14          5.6010     2.0420     6.8180 c          1 MDW       0.562100
     11 O15          5.5720     0.8260     6.9340 o          1 MDW      -0.553100
     12 N16          4.8040     2.7440     5.9870 ns         1 MDW      -0.388400
     13 O17          4.0050     2.0870     5.0660 oh         1 MDW      -0.427100
     14 C4           6.7820     2.3450    10.1210 ca         1 MDW      -0.036300
     15 C10          8.1480     1.7660     9.8570 c6         1 MDW      -0.028100
     16 C11          8.3390     1.4070     8.3940 c6         1 MDW       0.210800
     17 N9           7.9250     2.5590     7.5730 n3         1 MDW      -0.748500
     18 S18          8.7370     2.8740     6.1760 sy         1 MDW       1.209600
     19 O40          8.2500     4.1460     5.6970 o          1 MDW      -0.549500
     20 O41         10.1400     2.7170     6.4790 o          1 MDW      -0.549500
     21 C19          8.2890     1.6400     5.0010 ca         1 MDW      -0.362500
     22 C20          7.3590     1.9320     4.0020 ca         1 MDW       0.029000
     23 C21          6.9550     0.9400     3.1310 ca         1 MDW      -0.184000
     24 C22          7.4670    -0.3570     3.2530 ca         1 MDW       0.200100
     25 O25          7.0020    -1.2630     2.3650 os         1 MDW      -0.342100
     26 C26          7.4800    -2.6090     2.4450 c3         1 MDW       0.146900
     27 C23          8.4060    -0.6450     4.2490 ca         1 MDW      -0.184000
     28 C24          8.8130     0.3560     5.1180 ca         1 MDW       0.029000
     29 H28          6.8200     1.8800    12.2220 ha         1 MDW       0.117000
     30 H27          5.0710     2.4350    13.5640 ho         1 MDW       0.459000
     31 H35          2.0120     3.8290     9.2180 h1         1 MDW       0.041367
     32 H36          2.7540     5.4200     9.5400 h1         1 MDW       0.041367
     33 H37          1.3350     4.8910    10.4800 h1         1 MDW       0.041367
     34 H29          4.2210     3.9360     8.5780 ha         1 MDW       0.117000
     35 H30          6.4460     3.9740     7.2960 h1         1 MDW       0.094700
     36 H38          4.9700     3.7140     5.7640 hn         1 MDW       0.346500
     37 H39          3.1430     1.9730     5.4980 ho         1 MDW       0.450000
     38 H31          8.3020     0.8750    10.4690 hc         1 MDW       0.061700
     39 H32          8.9150     2.4900    10.1480 hc         1 MDW       0.061700
     40 H33          7.7490     0.5290     8.1250 h1         1 MDW       0.068700
     41 H34          9.3850     1.2040     8.1900 h1         1 MDW       0.068700
     42 H48          6.9590     2.9310     3.9110 ha         1 MDW       0.128000
     43 H42          6.2370     1.1500     2.3490 ha         1 MDW       0.128500
     44 H45          7.2310    -3.0530     3.4120 h1         1 MDW       0.047367
     45 H46          8.5600    -2.6490     2.2880 h1         1 MDW       0.047367
     46 H47          6.9730    -3.1500     1.6510 h1         1 MDW       0.047367
     47 H43          8.8230    -1.6350     4.3540 ha         1 MDW       0.128500
     48 H44          9.5440     0.1300     5.8820 ha         1 MDW       0.128000
@<TRIPOS>BOND
     1     1     2 ar  
     2     1    14 ar  
     3     1    29 1   
     4     2     3 1   
     5     2     4 ar  
     6     3    30 1   
     7     4     5 1   
     8     4     7 ar  
     9     5     6 1   
    10     6    31 1   
    11     6    32 1   
    12     6    33 1   
    13     7     8 ar  
    14     7    34 1   
    15     8     9 1   
    16     8    14 ar  
    17     9    10 1   
    18     9    17 1   
    19     9    35 1   
    20    10    11 2   
    21    10    12 1   
    22    12    13 1   
    23    12    36 1   
    24    13    37 1   
    25    14    15 1   
    26    15    16 1   
    27    15    38 1   
    28    15    39 1   
    29    16    17 1   
    30    16    40 1   
    31    16    41 1   
    32    17    18 1   
    33    18    19 2   
    34    18    20 2   
    35    18    21 1   
    36    21    22 ar  
    37    21    28 ar  
    38    22    23 ar  
    39    22    42 1   
    40    23    24 ar  
    41    23    43 1   
    42    24    25 1   
    43    24    27 ar  
    44    25    26 1   
    45    26    44 1   
    46    26    45 1   
    47    26    46 1   
    48    27    28 ar  
    49    27    47 1   
    50    28    48 1   
@<TRIPOS>SUBSTRUCTURE
     1 MDW         1 TEMP              0 ****  ****    0 ROOT
