@<TRIPOS>MOLECULE
MDW
   48    50     1     0     0
SMALL
No Charge or Current Charge


@<TRIPOS>ATOM
      1 C3           5.8970     1.7690    11.2230 ca         1 MDW      -0.174000
      2 C2           4.9220     2.6080    11.7870 ca         1 MDW       0.122100
      3 O1           4.5380     2.4040    13.0870 oh         1 MDW      -0.515100
      4 C7           4.3520     3.6510    11.0180 ca         1 MDW       0.115100
      5 O12          3.3930     4.4650    11.6000 os         1 MDW      -0.325100
      6 C13          2.7620     5.5470    10.8910 c3         1 MDW       0.145900
      7 C6           4.7740     3.8330     9.6810 ca         1 MDW      -0.160000
      8 C5           5.7510     2.9860     9.1160 ca         1 MDW      -0.078300
      9 C8           6.1740     3.1870     7.6500 c6         1 MDW       0.207800
     10 C14          4.9820     2.7120     6.7350 c          1 MDW       0.562100
     11 O15          4.4550     1.6090     6.8550 o          1 MDW      -0.553100
     12 N16          4.5310     3.6340     5.7900 ns         1 MDW      -0.388400
     13 O17          3.6030     3.2340     4.7510 oh         1 MDW      -0.427100
     14 C4           6.3120     1.9490     9.8920 ca         1 MDW      -0.036300
     15 C10          7.4050     1.0430     9.3180 c6         1 MDW      -0.028100
     16 C11          7.6000     1.1700     7.7900 c6         1 MDW       0.210800
     17 N9           7.5230     2.5860     7.3610 n3         1 MDW      -0.748500
     18 S18          8.2600     2.9810     5.8710 sy         1 MDW       1.209600
     19 O40          7.3790     3.9590     5.2240 o          1 MDW      -0.549500
     20 O41          9.6580     3.3010     6.1770 o          1 MDW      -0.549500
     21 C19          8.1550     1.4480     4.9340 ca         1 MDW      -0.362500
     22 C20          6.9770     1.1260     4.2320 ca         1 MDW       0.029000
     23 C21          6.9010    -0.0740     3.5080 ca         1 MDW      -0.184000
     24 C22          7.9900    -0.9560     3.4710 ca         1 MDW       0.200100
     25 O25          7.8520    -2.1200     2.7420 os         1 MDW      -0.342100
     26 C26          8.9080    -3.0920     2.6400 c3         1 MDW       0.146900
     27 C23          9.1740    -0.6300     4.1670 ca         1 MDW      -0.184000
     28 C24          9.2570     0.5700     4.8930 ca         1 MDW       0.029000
     29 H28          6.3410     0.9740    11.8180 ha         1 MDW       0.117000
     30 H27          5.0430     1.6440    13.4460 ho         1 MDW       0.459000
     31 H35          2.2240     5.1750    10.0100 h1         1 MDW       0.041367
     32 H36          3.5050     6.2860    10.5660 h1         1 MDW       0.041367
     33 H37          2.0390     6.0560    11.5410 h1         1 MDW       0.041367
     34 H29          4.3520     4.6240     9.0670 ha         1 MDW       0.117000
     35 H30          6.2390     4.2750     7.5020 h1         1 MDW       0.094700
     36 H38          5.1280     4.4320     5.5690 hn         1 MDW       0.346500
     37 H39          2.9230     3.9490     4.7560 ho         1 MDW       0.450000
     38 H31          7.1990    -0.0060     9.5700 hc         1 MDW       0.061700
     39 H32          8.3530     1.2950     9.8110 hc         1 MDW       0.061700
     40 H33          6.8440     0.5620     7.2710 h1         1 MDW       0.068700
     41 H34          8.5810     0.7340     7.5470 h1         1 MDW       0.068700
     42 H48          6.1200     1.7970     4.2410 ha         1 MDW       0.128000
     43 H42          5.9900    -0.3220     2.9700 ha         1 MDW       0.128500
     44 H45          9.1770    -3.4830     3.6300 h1         1 MDW       0.047367
     45 H46          9.8020    -2.6500     2.1800 h1         1 MDW       0.047367
     46 H47          8.5890    -3.9370     2.0170 h1         1 MDW       0.047367
     47 H43         10.0360    -1.2900     4.1550 ha         1 MDW       0.128500
     48 H44         10.1770     0.8080     5.4250 ha         1 MDW       0.128000
@<TRIPOS>BOND
     1     1     2 ar  
     2     1    14 ar  
     3     1    29 1   
     4     2     3 1   
     5     2     4 ar  
     6     3    30 1   
     7     4     5 1   
     8     4     7 ar  
     9     5     6 1   
    10     6    31 1   
    11     6    32 1   
    12     6    33 1   
    13     7     8 ar  
    14     7    34 1   
    15     8     9 1   
    16     8    14 ar  
    17     9    10 1   
    18     9    17 1   
    19     9    35 1   
    20    10    11 2   
    21    10    12 1   
    22    12    13 1   
    23    12    36 1   
    24    13    37 1   
    25    14    15 1   
    26    15    16 1   
    27    15    38 1   
    28    15    39 1   
    29    16    17 1   
    30    16    40 1   
    31    16    41 1   
    32    17    18 1   
    33    18    19 2   
    34    18    20 2   
    35    18    21 1   
    36    21    22 ar  
    37    21    28 ar  
    38    22    23 ar  
    39    22    42 1   
    40    23    24 ar  
    41    23    43 1   
    42    24    25 1   
    43    24    27 ar  
    44    25    26 1   
    45    26    44 1   
    46    26    45 1   
    47    26    46 1   
    48    27    28 ar  
    49    27    47 1   
    50    28    48 1   
@<TRIPOS>SUBSTRUCTURE
     1 MDW         1 TEMP              0 ****  ****    0 ROOT
