@<TRIPOS>MOLECULE
MDX
   35    34     1     0     0
SMALL
abcg2


@<TRIPOS>ATOM
      1 O1          -6.6280    -1.2370    -0.2100 o          1 MDX      -0.743500
      2 C11         -6.6150    -0.0060    -0.0100 c          1 MDX       0.717000
      3 O2          -7.6140     0.7200     0.1770 o          1 MDX      -0.743500
      4 C10         -5.2510     0.7070    -0.0040 c3         1 MDX      -0.203400
      5 C9          -4.0250    -0.1930    -0.0070 c3         1 MDX      -0.054400
      6 C8          -2.7170     0.5900    -0.0060 c3         1 MDX      -0.079400
      7 C7          -1.4820    -0.3030    -0.0010 c3         1 MDX      -0.075400
      8 C6          -0.1730     0.4760    -0.0030 c3         1 MDX      -0.075400
      9 C5           1.0600    -0.4180     0.0090 c3         1 MDX      -0.075400
     10 C4           2.3690     0.3630     0.0010 c3         1 MDX      -0.075400
     11 C3           3.6000    -0.5340     0.0200 c3         1 MDX      -0.074400
     12 C2           4.9050     0.2550     0.0040 c3         1 MDX      -0.070400
     13 C1           6.1190    -0.6600     0.0400 c3         1 MDX       0.091600
     14 S1           7.6380     0.3510    -0.0040 sh         1 MDX      -0.470800
     15 H101        -5.2160     1.3700    -0.8780 hc         1 MDX       0.014200
     16 H102        -5.2130     1.3800     0.8600 hc         1 MDX       0.014200
     17 H91         -4.0490    -0.8540     0.8660 hc         1 MDX       0.038200
     18 H92         -4.0510    -0.8500    -0.8810 hc         1 MDX       0.038200
     19 H81         -2.6840     1.2480    -0.8820 hc         1 MDX       0.023700
     20 H82         -2.6870     1.2520     0.8670 hc         1 MDX       0.023700
     21 H71         -1.5130    -0.9590     0.8770 hc         1 MDX       0.033700
     22 H72         -1.5110    -0.9660    -0.8730 hc         1 MDX       0.033700
     23 H61         -0.1400     1.1280    -0.8830 hc         1 MDX       0.032700
     24 H62         -0.1460     1.1420     0.8670 hc         1 MDX       0.032700
     25 H51          1.0300    -1.0670     0.8910 hc         1 MDX       0.035700
     26 H52          1.0320    -1.0870    -0.8590 hc         1 MDX       0.035700
     27 H41          2.4020     1.0070    -0.8850 hc         1 MDX       0.037700
     28 H42          2.3960     1.0350     0.8650 hc         1 MDX       0.037700
     29 H31          3.5710    -1.1720     0.9100 hc         1 MDX       0.037200
     30 H32          3.5720    -1.2090    -0.8420 hc         1 MDX       0.037200
     31 H21          4.9420     0.8810    -0.8930 hc         1 MDX       0.053700
     32 H22          4.9340     0.9340     0.8610 hc         1 MDX       0.053700
     33 H11          6.1150    -1.2610     0.9500 h1         1 MDX       0.056200
     34 H12          6.1110    -1.3370    -0.8150 h1         1 MDX       0.056200
     35 HS1          8.5270    -0.6420     0.1150 hs         1 MDX       0.207800
@<TRIPOS>BOND
     1     1     2 1   
     2     2     3 1   
     3     2     4 1   
     4     4     5 1   
     5     4    15 1   
     6     4    16 1   
     7     5     6 1   
     8     5    17 1   
     9     5    18 1   
    10     6     7 1   
    11     6    19 1   
    12     6    20 1   
    13     7     8 1   
    14     7    21 1   
    15     7    22 1   
    16     8     9 1   
    17     8    23 1   
    18     8    24 1   
    19     9    10 1   
    20     9    25 1   
    21     9    26 1   
    22    10    11 1   
    23    10    27 1   
    24    10    28 1   
    25    11    12 1   
    26    11    29 1   
    27    11    30 1   
    28    12    13 1   
    29    12    31 1   
    30    12    32 1   
    31    13    14 1   
    32    13    33 1   
    33    13    34 1   
    34    14    35 1   
@<TRIPOS>SUBSTRUCTURE
     1 MDX         1 TEMP              0 ****  ****    0 ROOT
