@<TRIPOS>MOLECULE
MDX
   35    34     1     0     0
SMALL
No Charge or Current Charge


@<TRIPOS>ATOM
      1 O1          -7.0910    -0.5560    -1.0220 o          1 MDX      -0.743500
      2 C11         -6.6260    -0.0820     0.0030 c          1 MDX       0.717000
      3 O2          -7.0960    -0.2810     1.1130 o          1 MDX      -0.743500
      4 C10         -5.3430     0.7620    -0.1030 c3         1 MDX      -0.203400
      5 C9          -4.0940    -0.1450     0.0170 c3         1 MDX      -0.054400
      6 C8          -2.7630     0.6350    -0.0810 c3         1 MDX      -0.079400
      7 C7          -1.5190    -0.2720     0.0390 c3         1 MDX      -0.075400
      8 C6          -0.1900     0.5080    -0.0590 c3         1 MDX      -0.075400
      9 C5           1.0540    -0.4000     0.0610 c3         1 MDX      -0.075400
     10 C4           2.3830     0.3810    -0.0370 c3         1 MDX      -0.075400
     11 C3           3.6270    -0.5270     0.0830 c3         1 MDX      -0.074400
     12 C2           4.9570     0.2530    -0.0160 c3         1 MDX      -0.070400
     13 C1           6.1960    -0.6540     0.1040 c3         1 MDX       0.091600
     14 S1           7.7930     0.2780    -0.0130 sh         1 MDX      -0.470800
     15 H101        -5.2760     1.2360    -1.0900 hc         1 MDX       0.014200
     16 H102        -5.2800     1.4710     0.7320 hc         1 MDX       0.014200
     17 H91         -4.1270    -0.6800     0.9740 hc         1 MDX       0.038200
     18 H92         -4.1230    -0.9050    -0.7740 hc         1 MDX       0.038200
     19 H81         -2.7280     1.1690    -1.0390 hc         1 MDX       0.023700
     20 H82         -2.7320     1.3950     0.7100 hc         1 MDX       0.023700
     21 H71         -1.5540    -0.8060     0.9970 hc         1 MDX       0.033700
     22 H72         -1.5500    -1.0320    -0.7530 hc         1 MDX       0.033700
     23 H61         -0.1550     1.0420    -1.0170 hc         1 MDX       0.032700
     24 H62         -0.1590     1.2670     0.7320 hc         1 MDX       0.032700
     25 H51          1.0190    -0.9330     1.0190 hc         1 MDX       0.035700
     26 H52          1.0230    -1.1590    -0.7310 hc         1 MDX       0.035700
     27 H41          2.4180     0.9150    -0.9950 hc         1 MDX       0.037700
     28 H42          2.4140     1.1400     0.7540 hc         1 MDX       0.037700
     29 H31          3.5930    -1.0610     1.0410 hc         1 MDX       0.037200
     30 H32          3.5960    -1.2870    -0.7090 hc         1 MDX       0.037200
     31 H21          4.9960     0.7860    -0.9740 hc         1 MDX       0.053700
     32 H22          4.9920     1.0120     0.7760 hc         1 MDX       0.053700
     33 H11          6.1730    -1.1790     1.0680 h1         1 MDX       0.056200
     34 H12          6.1770    -1.4070    -0.6940 h1         1 MDX       0.056200
     35 HS1          8.6040    -0.8010     0.1280 hs         1 MDX       0.207800
@<TRIPOS>BOND
     1     1     2 1   
     2     2     3 1   
     3     2     4 1   
     4     4     5 1   
     5     4    15 1   
     6     4    16 1   
     7     5     6 1   
     8     5    17 1   
     9     5    18 1   
    10     6     7 1   
    11     6    19 1   
    12     6    20 1   
    13     7     8 1   
    14     7    21 1   
    15     7    22 1   
    16     8     9 1   
    17     8    23 1   
    18     8    24 1   
    19     9    10 1   
    20     9    25 1   
    21     9    26 1   
    22    10    11 1   
    23    10    27 1   
    24    10    28 1   
    25    11    12 1   
    26    11    29 1   
    27    11    30 1   
    28    12    13 1   
    29    12    31 1   
    30    12    32 1   
    31    13    14 1   
    32    13    33 1   
    33    13    34 1   
    34    14    35 1   
@<TRIPOS>SUBSTRUCTURE
     1 MDX         1 TEMP              0 ****  ****    0 ROOT
