@<TRIPOS>MOLECULE
MDY
   39    40     1     0     0
SMALL
abcg2


@<TRIPOS>ATOM
      1 CAA         -4.4630     2.9850     1.2330 c3         1 MDY       0.147900
      2 OAP         -3.7320     1.8890     0.7200 os         1 MDY      -0.336100
      3 CAW         -4.4000     0.8510     0.1880 ca         1 MDY       0.156100
      4 CAJ         -5.7900     0.7680     0.1480 ca         1 MDY      -0.203000
      5 CAH         -6.4070    -0.3540    -0.3920 ca         1 MDY      -0.067000
      6 CAI         -5.6520    -1.3990    -0.8940 ca         1 MDY      -0.150000
      7 CAK         -4.2670    -1.3110    -0.8550 ca         1 MDY      -0.066000
      8 CAX         -3.6200    -0.1990    -0.3260 cp         1 MDY      -0.073000
      9 CAU         -2.1430    -0.1580    -0.2940 cp         1 MDY      -0.029000
     10 CAN         -1.4380    -1.2450     0.2120 ca         1 MDY      -0.079000
     11 CAT         -0.0540    -1.2480     0.2130 ca         1 MDY       0.073000
     12 CLAF         0.7760    -2.6160     0.8790 cl         1 MDY      -0.205000
     13 CAL         -1.4130     0.9140    -0.8080 ca         1 MDY      -0.064000
     14 CAM         -0.0310     0.9010    -0.8220 ca         1 MDY      -0.113000
     15 CAV          0.6810    -0.1790    -0.3010 ca         1 MDY      -0.015000
     16 NAO          2.0760    -0.2470    -0.3210 ns         1 MDY      -0.156000
     17 CAR          2.9250     0.7880    -0.0540 c          1 MDY       0.649300
     18 OAD          2.5380     1.9180     0.1650 o          1 MDY      -0.566100
     19 CAS          4.3620     0.4130    -0.0490 ce         1 MDY      -0.196900
     20 CAG          4.6950    -0.9630    -0.0120 cg         1 MDY       0.293700
     21 NAC          4.9110    -2.0980     0.0200 n1         1 MDY      -0.467000
     22 CAQ          5.3830     1.3260    -0.0720 c2         1 MDY       0.222900
     23 CAB          6.8230     0.9500    -0.0550 c3         1 MDY      -0.125900
     24 OAE          5.1090     2.6070    -0.1280 oh         1 MDY      -0.474100
     25 HAA         -5.0790     3.4610     0.4650 h1         1 MDY       0.041700
     26 HAAA        -5.1040     2.6940     2.0690 h1         1 MDY       0.041700
     27 HAAB        -3.7290     3.7040     1.5880 h1         1 MDY       0.041700
     28 HAJ         -6.4050     1.5640     0.5440 ha         1 MDY       0.117000
     29 HAH         -7.4890    -0.4000    -0.4150 ha         1 MDY       0.112000
     30 HAI         -6.1280    -2.2720    -1.3190 ha         1 MDY       0.117000
     31 HAK         -3.6700    -2.1180    -1.2620 ha         1 MDY       0.118000
     32 HAN         -1.9690    -2.0910     0.6290 ha         1 MDY       0.129000
     33 HAL         -1.9270     1.7640    -1.2370 ha         1 MDY       0.124000
     34 HAM          0.4990     1.7310    -1.2620 ha         1 MDY       0.138000
     35 HNAO         2.4670    -1.1680    -0.4580 hn         1 MDY       0.168000
     36 HAB          7.3040     1.3000    -0.9710 hc         1 MDY       0.072367
     37 HABA         7.3190     1.4400     0.7850 hc         1 MDY       0.072367
     38 HABB         6.9880    -0.1190     0.0290 hc         1 MDY       0.072367
     39 HOAE         5.9190     3.1340    -0.1640 ho         1 MDY       0.478000
@<TRIPOS>BOND
     1     1     2 1   
     2     1    25 1   
     3     1    26 1   
     4     1    27 1   
     5     2     3 1   
     6     3     4 ar  
     7     3     8 ar  
     8     4     5 ar  
     9     4    28 1   
    10     5     6 ar  
    11     5    29 1   
    12     6     7 ar  
    13     6    30 1   
    14     7     8 ar  
    15     7    31 1   
    16     8     9 1   
    17     9    10 ar  
    18     9    13 ar  
    19    10    11 ar  
    20    10    32 1   
    21    11    12 1   
    22    11    15 ar  
    23    13    14 ar  
    24    13    33 1   
    25    14    15 ar  
    26    14    34 1   
    27    15    16 1   
    28    16    17 1   
    29    16    35 1   
    30    17    18 2   
    31    17    19 1   
    32    19    20 1   
    33    19    22 2   
    34    20    21 3   
    35    22    23 1   
    36    22    24 1   
    37    23    36 1   
    38    23    37 1   
    39    23    38 1   
    40    24    39 1   
@<TRIPOS>SUBSTRUCTURE
     1 MDY         1 TEMP              0 ****  ****    0 ROOT
