@<TRIPOS>MOLECULE
MDY
   39    40     1     0     0
SMALL
No Charge or Current Charge


@<TRIPOS>ATOM
      1 CAA         -4.7980     2.6190     1.8060 c3         1 MDY       0.147900
      2 OAP         -3.9900     1.6890     1.0640 os         1 MDY      -0.336100
      3 CAW         -4.5370     0.7420     0.2180 ca         1 MDY       0.156100
      4 CAJ         -5.9330     0.6170     0.0380 ca         1 MDY      -0.203000
      5 CAH         -6.4490    -0.3810    -0.8040 ca         1 MDY      -0.067000
      6 CAI         -5.5770    -1.2590    -1.4640 ca         1 MDY      -0.150000
      7 CAK         -4.1890    -1.1400    -1.2890 ca         1 MDY      -0.066000
      8 CAX         -3.6380    -0.1370    -0.4520 cp         1 MDY      -0.073000
      9 CAU         -2.1520    -0.0410    -0.2980 cp         1 MDY      -0.029000
     10 CAN         -1.3790    -1.1980    -0.0450 ca         1 MDY      -0.079000
     11 CAT          0.0170    -1.1240     0.0900 ca         1 MDY       0.073000
     12 ClAF         0.9170    -2.6070     0.4160 cl         1 MDY      -0.205000
     13 CAL         -1.4700     1.1920    -0.4230 ca         1 MDY      -0.064000
     14 CAM         -0.0730     1.2720    -0.2910 ca         1 MDY      -0.113000
     15 CAV          0.6900     0.1110    -0.0360 ca         1 MDY      -0.015000
     16 NAO          2.1070     0.1240     0.1150 ns         1 MDY      -0.156000
     17 CAR          3.0700     1.1070    -0.0950 c          1 MDY       0.649300
     18 OAD          2.8010     2.2090    -0.5590 o          1 MDY      -0.566100
     19 CAS          4.4780     0.6750     0.1990 ce         1 MDY      -0.196900
     20 CAG          4.6480    -0.2470     1.2780 cg         1 MDY       0.293700
     21 NAC          4.7480    -1.0200     2.1460 n1         1 MDY      -0.467000
     22 CAQ          5.5410     1.0330    -0.5670 c2         1 MDY       0.222900
     23 CAB          6.9740     0.5760    -0.3320 c3         1 MDY      -0.125900
     24 OAE          5.4170     1.8240    -1.6480 oh         1 MDY      -0.474100
     25 HAA         -5.3900     3.2470     1.1290 h1         1 MDY       0.041700
     26 HAAA        -5.4790     2.0900     2.4840 h1         1 MDY       0.041700
     27 HAAB        -4.1610     3.2770     2.4100 h1         1 MDY       0.041700
     28 HAJ         -6.6300     1.2780     0.5440 ha         1 MDY       0.117000
     29 HAH         -7.5240    -0.4770    -0.9410 ha         1 MDY       0.112000
     30 HAI         -5.9780    -2.0340    -2.1150 ha         1 MDY       0.117000
     31 HAK         -3.5290    -1.8250    -1.8160 ha         1 MDY       0.118000
     32 HAN         -1.8700    -2.1620     0.0590 ha         1 MDY       0.129000
     33 HAL         -2.0330     2.0990    -0.6330 ha         1 MDY       0.124000
     34 HAM          0.3930     2.2480    -0.3840 ha         1 MDY       0.138000
     35 HNAO         2.4830    -0.7570     0.4430 hn         1 MDY       0.168000
     36 HAB          7.6940     1.0560    -1.0050 hc         1 MDY       0.072367
     37 HABA         7.2940     0.8050     0.6920 hc         1 MDY       0.072367
     38 HABB         7.0660    -0.5070    -0.4740 hc         1 MDY       0.072367
     39 HOAE         6.3060     1.9400    -2.0430 ho         1 MDY       0.478000
@<TRIPOS>BOND
     1     1     2 1   
     2     1    25 1   
     3     1    26 1   
     4     1    27 1   
     5     2     3 1   
     6     3     4 ar  
     7     3     8 ar  
     8     4     5 ar  
     9     4    28 1   
    10     5     6 ar  
    11     5    29 1   
    12     6     7 ar  
    13     6    30 1   
    14     7     8 ar  
    15     7    31 1   
    16     8     9 1   
    17     9    10 ar  
    18     9    13 ar  
    19    10    11 ar  
    20    10    32 1   
    21    11    12 1   
    22    11    15 ar  
    23    13    14 ar  
    24    13    33 1   
    25    14    15 ar  
    26    14    34 1   
    27    15    16 1   
    28    16    17 1   
    29    16    35 1   
    30    17    18 2   
    31    17    19 1   
    32    19    20 1   
    33    19    22 2   
    34    20    21 3   
    35    22    23 1   
    36    22    24 1   
    37    23    36 1   
    38    23    37 1   
    39    23    38 1   
    40    24    39 1   
@<TRIPOS>SUBSTRUCTURE
     1 MDY         1 TEMP              0 ****  ****    0 ROOT
