@<TRIPOS>MOLECULE
MDZ
   49    48     1     0     0
SMALL
No Charge or Current Charge


@<TRIPOS>ATOM
      1 O43          1.0320     3.6420    -1.6690 o          1 MDZ      -0.718500
      2 C31          1.1090     3.8780    -0.4680 c          1 MDZ       0.731000
      3 O42          2.1840     4.0050     0.1050 o          1 MDZ      -0.718500
      4 C30         -0.1940     3.8270     0.4090 c3         1 MDZ       0.038300
      5 O29         -1.2830     3.1370    -0.2740 os         1 MDZ      -0.407100
      6 C13         -2.3260     2.6180     0.4540 c          1 MDZ       0.579100
      7 O18         -2.3490     2.5540     1.6800 o          1 MDZ      -0.502000
      8 C12         -3.3990     1.9900    -0.4720 c3         1 MDZ       0.061700
      9 C16         -4.1190     3.0940    -1.2980 c3         1 MDZ       0.100300
     10 S17         -5.1870     4.1920    -0.2470 sh         1 MDZ      -0.461800
     11 C25         -4.9210     2.5180    -2.4840 c3         1 MDZ      -0.090100
     12 N11         -4.3430     1.1520     0.3100 ns         1 MDZ      -0.510900
     13 C10         -4.8620    -0.0530    -0.1030 c          1 MDZ       0.601100
     14 O15         -4.5570    -0.5640    -1.1710 o          1 MDZ      -0.582100
     15 C7          -5.8710    -0.6890     0.8590 c3         1 MDZ      -0.150400
     16 C4          -5.2700    -1.9160     1.5860 c3         1 MDZ      -0.064400
     17 C3          -6.2660    -2.5800     2.5700 c3         1 MDZ      -0.040400
     18 C2          -5.7240    -3.8280     3.3210 c3         1 MDZ       0.015500
     19 N14         -4.6050    -3.4480     4.2600 n8         1 MDZ      -0.997200
     20 C1          -5.4390    -5.0260     2.3190 c          1 MDZ       0.691000
     21 O20         -4.2870    -5.2170     1.9460 o          1 MDZ      -0.739000
     22 O19         -6.3550    -5.7940     2.0610 o          1 MDZ      -0.739000
     23 C32         -0.7110     5.2470     0.8260 c3         1 MDZ      -0.064700
     24 C37          0.2570     5.9760     1.7860 c3         1 MDZ      -0.069100
     25 C33         -1.0700     6.1400    -0.3870 c3         1 MDZ      -0.069100
     26 H30          0.0830     3.2730     1.3160 h1         1 MDZ       0.058700
     27 H12         -2.8410     1.3500    -1.1670 h1         1 MDZ       0.107700
     28 H16         -3.3400     3.7360    -1.7350 h1         1 MDZ       0.101700
     29 H251        -5.7640     1.9130    -2.1300 hc         1 MDZ       0.039700
     30 H252        -4.2840     1.8900    -3.1170 hc         1 MDZ       0.039700
     31 H253        -5.3220     3.3290    -3.1040 hc         1 MDZ       0.039700
     32 H11         -4.6550     1.4980     1.2100 hn         1 MDZ       0.315500
     33 H7C1        -6.7440    -1.0200     0.2840 hc         1 MDZ       0.042700
     34 H7C2        -6.1820     0.0440     1.6140 hc         1 MDZ       0.042700
     35 H4C1        -4.3710    -1.6020     2.1300 hc         1 MDZ       0.067200
     36 H4C2        -4.9500    -2.6520     0.8380 hc         1 MDZ       0.067200
     37 H3C1        -6.5900    -1.8340     3.3070 hc         1 MDZ       0.018700
     38 H3C2        -7.1670    -2.8730     2.0170 hc         1 MDZ       0.018700
     39 H2          -6.5430    -4.1740     3.9680 h1         1 MDZ       0.026700
     40 H141        -3.7640    -3.2780     3.6960 hn         1 MDZ       0.381000
     41 H142        -4.3440    -4.2730     4.8130 hn         1 MDZ       0.381000
     42 H32         -1.6380     5.1080     1.3940 hc         1 MDZ       0.030700
     43 H371         0.5080     5.3380     2.6420 hc         1 MDZ       0.023367
     44 H372        -0.2050     6.8930     2.1730 hc         1 MDZ       0.023367
     45 H373         1.1870     6.2560     1.2780 hc         1 MDZ       0.023367
     46 H331        -1.8130     5.6530    -1.0300 hc         1 MDZ       0.023367
     47 H332        -0.1820     6.3600    -0.9920 hc         1 MDZ       0.023367
     48 H333        -1.4950     7.0930    -0.0500 hc         1 MDZ       0.023367
     49 HS1         -5.5770     5.0200    -1.2460 hs         1 MDZ       0.188800
@<TRIPOS>BOND
     1     1     2 1   
     2     2     3 1   
     3     2     4 1   
     4     4     5 1   
     5     4    23 1   
     6     4    26 1   
     7     5     6 1   
     8     6     7 2   
     9     6     8 1   
    10     8     9 1   
    11     8    12 1   
    12     8    27 1   
    13     9    10 1   
    14     9    11 1   
    15     9    28 1   
    16    10    49 1   
    17    11    29 1   
    18    11    30 1   
    19    11    31 1   
    20    12    13 1   
    21    12    32 1   
    22    13    14 2   
    23    13    15 1   
    24    15    16 1   
    25    15    33 1   
    26    15    34 1   
    27    16    17 1   
    28    16    35 1   
    29    16    36 1   
    30    17    18 1   
    31    17    37 1   
    32    17    38 1   
    33    18    19 1   
    34    18    20 1   
    35    18    39 1   
    36    19    40 1   
    37    19    41 1   
    38    20    21 1   
    39    20    22 1   
    40    23    24 1   
    41    23    25 1   
    42    23    42 1   
    43    24    43 1   
    44    24    44 1   
    45    24    45 1   
    46    25    46 1   
    47    25    47 1   
    48    25    48 1   
@<TRIPOS>SUBSTRUCTURE
     1 MDZ         1 TEMP              0 ****  ****    0 ROOT
