@<TRIPOS>MOLECULE
MDZ
   49    48     1     0     0
SMALL
abcg2


@<TRIPOS>ATOM
      1 O43          0.8460     3.4110    -1.6150 o          1 MDZ      -0.718500
      2 C31          0.9450     3.7320    -0.4210 c          1 MDZ       0.731000
      3 O42          1.9840     4.0030     0.2110 o          1 MDZ      -0.718500
      4 C30         -0.3490     3.8400     0.4100 c3         1 MDZ       0.038300
      5 O29         -1.3890     3.1250    -0.2870 os         1 MDZ      -0.407100
      6 C13         -2.3950     2.6140     0.3890 c          1 MDZ       0.579100
      7 O18         -2.5000     2.5850     1.5880 o          1 MDZ      -0.502000
      8 C12         -3.4530     2.0650    -0.5690 c3         1 MDZ       0.061700
      9 C16         -4.1190     3.2070    -1.3480 c3         1 MDZ       0.100300
     10 S17         -4.8850     4.3460    -0.1260 sh         1 MDZ      -0.461800
     11 C25         -5.1270     2.6970    -2.3630 c3         1 MDZ      -0.090100
     12 N11         -4.4270     1.2790     0.1280 ns         1 MDZ      -0.510900
     13 C10         -4.1360     0.0580     0.6260 c          1 MDZ       0.601100
     14 O15         -3.0520    -0.4720     0.4380 o          1 MDZ      -0.582100
     15 C7          -5.2630    -0.5900     1.3990 c3         1 MDZ      -0.150400
     16 C4          -4.9560    -1.9980     1.8810 c3         1 MDZ      -0.064400
     17 C3          -6.1520    -2.6110     2.6010 c3         1 MDZ      -0.040400
     18 C2          -5.9020    -4.0240     3.1430 c3         1 MDZ       0.015500
     19 N14         -4.8440    -4.0020     4.1440 n8         1 MDZ      -0.997200
     20 C1          -5.6790    -4.9990     1.9610 c          1 MDZ       0.691000
     21 O20         -4.5310    -5.4610     1.8000 o          1 MDZ      -0.739000
     22 O19         -6.6760    -5.2250     1.2430 o          1 MDZ      -0.739000
     23 C32         -0.8150     5.2860     0.6320 c3         1 MDZ      -0.064700
     24 C37          0.0950     6.0410     1.5950 c3         1 MDZ      -0.069100
     25 C33         -0.9830     6.0580    -0.6730 c3         1 MDZ      -0.069100
     26 H30         -0.1850     3.3690     1.3830 h1         1 MDZ       0.058700
     27 H12         -2.9450     1.4400    -1.3100 h1         1 MDZ       0.107700
     28 H16         -3.3330     3.7570    -1.8650 h1         1 MDZ       0.101700
     29 H251        -5.9440     2.1520    -1.8930 hc         1 MDZ       0.039700
     30 H252        -4.6330     2.0300    -3.0730 hc         1 MDZ       0.039700
     31 H253        -5.5520     3.5270    -2.9270 hc         1 MDZ       0.039700
     32 H11         -5.2930     1.7200     0.4010 hn         1 MDZ       0.315500
     33 H7C1        -6.1550    -0.5940     0.7640 hc         1 MDZ       0.042700
     34 H7C2        -5.5140     0.0540     2.2490 hc         1 MDZ       0.042700
     35 H4C1        -4.0930    -1.9710     2.5510 hc         1 MDZ       0.067200
     36 H4C2        -4.6700    -2.6190     1.0290 hc         1 MDZ       0.067200
     37 H3C1        -6.4380    -1.9650     3.4380 hc         1 MDZ       0.018700
     38 H3C2        -7.0100    -2.6410     1.9250 hc         1 MDZ       0.018700
     39 H2          -6.8240    -4.3300     3.6490 h1         1 MDZ       0.026700
     40 H141        -3.9560    -4.0320     3.6560 hn         1 MDZ       0.381000
     41 H142        -4.8690    -4.8760     4.6550 hn         1 MDZ       0.381000
     42 H32         -1.8000     5.2220     1.1080 hc         1 MDZ       0.030700
     43 H371         0.2460     5.4890     2.5240 hc         1 MDZ       0.023367
     44 H372        -0.3520     7.0020     1.8500 hc         1 MDZ       0.023367
     45 H373         1.0740     6.2310     1.1570 hc         1 MDZ       0.023367
     46 H331        -1.6170     5.5320    -1.3860 hc         1 MDZ       0.023367
     47 H332        -0.0210     6.2470    -1.1530 hc         1 MDZ       0.023367
     48 H333        -1.4430     7.0280    -0.4770 hc         1 MDZ       0.023367
     49 HS1         -5.4570     5.1650    -1.0150 hs         1 MDZ       0.188800
@<TRIPOS>BOND
     1     1     2 1   
     2     2     3 1   
     3     2     4 1   
     4     4     5 1   
     5     4    23 1   
     6     4    26 1   
     7     5     6 1   
     8     6     7 2   
     9     6     8 1   
    10     8     9 1   
    11     8    12 1   
    12     8    27 1   
    13     9    10 1   
    14     9    11 1   
    15     9    28 1   
    16    10    49 1   
    17    11    29 1   
    18    11    30 1   
    19    11    31 1   
    20    12    13 1   
    21    12    32 1   
    22    13    14 2   
    23    13    15 1   
    24    15    16 1   
    25    15    33 1   
    26    15    34 1   
    27    16    17 1   
    28    16    35 1   
    29    16    36 1   
    30    17    18 1   
    31    17    37 1   
    32    17    38 1   
    33    18    19 1   
    34    18    20 1   
    35    18    39 1   
    36    19    40 1   
    37    19    41 1   
    38    20    21 1   
    39    20    22 1   
    40    23    24 1   
    41    23    25 1   
    42    23    42 1   
    43    24    43 1   
    44    24    44 1   
    45    24    45 1   
    46    25    46 1   
    47    25    47 1   
    48    25    48 1   
@<TRIPOS>SUBSTRUCTURE
     1 MDZ         1 TEMP              0 ****  ****    0 ROOT
