@<TRIPOS>MOLECULE
ME0
   20    19     1     0     0
SMALL
bcc


@<TRIPOS>ATOM
      1 C           -2.1940   105.3660    70.1310 c          1 ME0       0.923600
      2 N           -0.8550   103.8270    71.5580 n8         1 ME0      -0.857800
      3 O           -3.2250   104.7210    70.4000 o          1 ME0      -0.831800
      4 CA          -0.8350   104.6620    70.3610 c3         1 ME0       0.020500
      5 CB          -0.5060   103.7610    69.1660 c3         1 ME0      -0.053400
      6 SD           0.2230   103.4860    66.4660 ss         1 ME0      -0.397200
      7 CE          -1.3030   102.6480    66.0070 c3         1 ME0       0.234500
      8 OF          -1.5190   101.5210    66.8150 oh         1 ME0      -0.575800
      9 CG          -0.3170   104.5200    67.8620 c3         1 ME0       0.052700
     10 OXT         -2.1360   106.5190    69.6520 o          1 ME0      -0.831800
     11 HN           0.0860   103.5010    71.7430 hn         1 ME0       0.308300
     12 HNA         -1.1080   104.3910    72.3600 hn         1 ME0       0.308300
     13 HA          -0.0620   105.4450    70.4130 h1         1 ME0      -0.001300
     14 HB           0.4140   103.2080    69.3820 hc         1 ME0       0.041700
     15 HBA         -1.2970   103.0170    69.0550 hc         1 ME0       0.041700
     16 HE          -2.1220   103.3730    66.0740 h2         1 ME0       0.038200
     17 H7          -1.1830   102.3780    64.9510 h2         1 ME0       0.038200
     18 H8          -2.3470   101.1130    66.5350 ho         1 ME0       0.390000
     19 HG           0.4620   105.2770    67.9720 h1         1 ME0       0.077200
     20 HGA         -1.2250   105.0410    67.5570 h1         1 ME0       0.077200
@<TRIPOS>BOND
     1     1     3 1   
     2     1     4 1   
     3     1    10 1   
     4     2     4 1   
     5     2    11 1   
     6     2    12 1   
     7     4     5 1   
     8     4    13 1   
     9     5     9 1   
    10     5    14 1   
    11     5    15 1   
    12     6     7 1   
    13     6     9 1   
    14     7     8 1   
    15     7    16 1   
    16     7    17 1   
    17     8    18 1   
    18     9    19 1   
    19     9    20 1   
@<TRIPOS>SUBSTRUCTURE
     1 ME0         1 TEMP              0 ****  ****    0 ROOT
