@<TRIPOS>MOLECULE
ME0
   20    19     1     0     0
SMALL
No Charge or Current Charge


@<TRIPOS>ATOM
      1 C           -2.2600   105.3470    70.1510 c          1 ME0       0.713000
      2 N           -0.6940   103.9490    71.7340 n8         1 ME0      -0.968200
      3 O           -3.2220   104.6490    69.8510 o          1 ME0      -0.726500
      4 CA          -0.8530   104.6560    70.4140 c3         1 ME0       0.020500
      5 CB          -0.4320   103.7130    69.2530 c3         1 ME0      -0.053400
      6 SD           0.2980   103.2950    66.5670 ss         1 ME0      -0.493000
      7 CE          -1.2440   102.6110    65.8240 c3         1 ME0       0.305600
      8 OF          -1.8990   101.7590    66.7590 oh         1 ME0      -0.638000
      9 CG          -0.4100   104.4090    67.8730 c3         1 ME0       0.100600
     10 OXT         -2.3370   106.5610    70.2860 o          1 ME0      -0.726500
     11 HN           0.2810   103.6480    71.8450 hn         1 ME0       0.363500
     12 HNA         -0.8330   104.6240    72.4960 hn         1 ME0       0.363500
     13 HA          -0.1140   105.4690    70.4340 h1         1 ME0      -0.001300
     14 HB           0.5700   103.3170    69.4590 hc         1 ME0       0.041700
     15 HBA         -1.1120   102.8530    69.2130 hc         1 ME0       0.041700
     16 HE          -1.9100   103.4360    65.5430 h2         1 ME0       0.038200
     17 H7          -0.9810   102.0330    64.9300 h2         1 ME0       0.038200
     18 H8          -2.6970   101.4140    66.3050 ho         1 ME0       0.429000
     19 HG           0.2190   105.3080    67.9380 h1         1 ME0       0.077200
     20 HGA         -1.4210   104.7220    67.5840 h1         1 ME0       0.077200
@<TRIPOS>BOND
     1     1     3 1   
     2     1     4 1   
     3     1    10 1   
     4     2     4 1   
     5     2    11 1   
     6     2    12 1   
     7     4     5 1   
     8     4    13 1   
     9     5     9 1   
    10     5    14 1   
    11     5    15 1   
    12     6     7 1   
    13     6     9 1   
    14     7     8 1   
    15     7    16 1   
    16     7    17 1   
    17     8    18 1   
    18     9    19 1   
    19     9    20 1   
@<TRIPOS>SUBSTRUCTURE
     1 ME0         1 TEMP              0 ****  ****    0 ROOT
