@<TRIPOS>MOLECULE
ME1
   43    45     1     0     0
SMALL
No Charge or Current Charge


@<TRIPOS>ATOM
      1 C1           1.8580    11.7550     3.0960 cc         1 ME1      -0.019000
      2 C2           0.9940    12.4640     3.8900 cd         1 ME1      -0.128000
      3 C3          -0.2700    12.6870     3.2770 cd         1 ME1      -0.062000
      4 C9          -2.5140    11.4460    -1.0320 c3         1 ME1       0.086000
      5 C10         -3.4970    10.3190    -0.6380 c3         1 ME1       0.072000
      6 C12         -2.3170     8.4860     0.6500 c          1 ME1       0.606700
      7 C14         -1.5910     7.1600     0.5400 ca         1 ME1      -0.148600
      8 C15         -1.0290     6.5800     1.6970 ca         1 ME1      -0.069000
      9 C16         -0.3470     5.3530     1.6320 ca         1 ME1      -0.104000
     10 C19         -1.4330     6.4810    -0.6910 ca         1 ME1      -0.069000
     11 C21          1.3860     3.2390    -0.7840 cc         1 ME1      -0.026400
     12 C22          2.0980     2.0750    -1.0000 cd         1 ME1      -0.298000
     13 C24          1.2250     1.1950     1.0580 cc         1 ME1      -0.317200
     14 C4          -0.3620    12.1470     2.0130 cc         1 ME1      -0.271600
     15 S5           1.1340    11.3360     1.5480 ss         1 ME1       0.232000
     16 C6          -1.5690    12.2210     1.1690 c          1 ME1       0.655700
     17 O7          -2.6060    12.7700     1.5140 o          1 ME1      -0.582100
     18 N8          -1.4280    11.6220    -0.0610 ns         1 ME1      -0.507900
     19 N11         -2.8360     9.0080    -0.5190 ns         1 ME1      -0.505900
     20 O13         -2.4400     9.0700     1.7170 o          1 ME1      -0.581100
     21 C17         -0.2320     4.6460     0.4160 ca         1 ME1       0.042600
     22 C18         -0.7470     5.2550    -0.7500 ca         1 ME1      -0.104000
     23 N20          0.5690     3.4390     0.3410 n          1 ME1      -0.204200
     24 C23          2.0260     1.0100    -0.0450 cd         1 ME1      -0.085000
     25 C25          0.4330     2.4080     1.3100 c          1 ME1       0.556200
     26 O26         -0.3070     2.4870     2.2820 o          1 ME1      -0.537000
     27 Cl27         3.4790    11.2980     3.5190 cl         1 ME1      -0.139000
     28 H2           1.2490    12.8150     4.8850 ha         1 ME1       0.150000
     29 H3          -1.0800    13.2270     3.7610 ha         1 ME1       0.156000
     30 H91         -2.0740    11.2160    -2.0110 h1         1 ME1       0.055700
     31 H92         -3.0650    12.3920    -1.1270 h1         1 ME1       0.055700
     32 H101        -4.2810    10.2470    -1.4040 h1         1 ME1       0.073200
     33 H102        -3.9860    10.5740     0.3110 h1         1 ME1       0.073200
     34 H15         -1.1070     7.0860     2.6570 ha         1 ME1       0.130000
     35 H16          0.1070     4.9630     2.5390 ha         1 ME1       0.131000
     36 H19         -1.8310     6.8880    -1.6160 ha         1 ME1       0.130000
     37 H22          2.7230     1.9760    -1.8850 ha         1 ME1       0.201000
     38 H24          1.1190     0.4220     1.8100 ha         1 ME1       0.210000
     39 HN8         -0.5320    11.1980    -0.2610 hn         1 ME1       0.313500
     40 HN11        -2.7060     8.4610    -1.3600 hn         1 ME1       0.309500
     41 H18         -0.6570     4.7600    -1.7140 ha         1 ME1       0.131000
     42 H23          2.5850     0.0850    -0.1870 ha         1 ME1       0.187000
     43 H21          1.4300     4.1010    -1.4410 h4         1 ME1       0.201000
@<TRIPOS>BOND
     1     1     2 2   
     2     1    15 1   
     3     1    27 1   
     4     2     3 1   
     5     2    28 1   
     6     3    14 2   
     7     3    29 1   
     8     4     5 1   
     9     4    18 1   
    10     4    30 1   
    11     4    31 1   
    12     5    19 1   
    13     5    32 1   
    14     5    33 1   
    15     6     7 1   
    16     6    19 1   
    17     6    20 2   
    18     7     8 ar  
    19     7    10 ar  
    20     8     9 ar  
    21     8    34 1   
    22     9    21 ar  
    23     9    35 1   
    24    10    22 ar  
    25    10    36 1   
    26    11    12 2   
    27    11    23 1   
    28    11    43 1   
    29    12    24 1   
    30    12    37 1   
    31    13    24 2   
    32    13    25 1   
    33    13    38 1   
    34    14    15 1   
    35    14    16 1   
    36    16    17 2   
    37    16    18 1   
    38    18    39 1   
    39    19    40 1   
    40    21    22 ar  
    41    21    23 1   
    42    22    41 1   
    43    23    25 1   
    44    24    42 1   
    45    25    26 2   
@<TRIPOS>SUBSTRUCTURE
     1 ME1         1 TEMP              0 ****  ****    0 ROOT
