@<TRIPOS>MOLECULE
ME1
   43    45     1     0     0
SMALL
bcc


@<TRIPOS>ATOM
      1 C1           1.5710    11.1780     3.3200 cc         1 ME1       0.034300
      2 C2           0.9330    12.2050     3.9430 cd         1 ME1      -0.146000
      3 C3          -0.2370    12.5900     3.2440 cd         1 ME1      -0.080000
      4 C9          -2.5130    11.4650    -1.0090 c3         1 ME1       0.086000
      5 C10         -3.4280    10.2810    -0.7060 c3         1 ME1       0.072000
      6 C12         -2.2480     8.5190     0.5340 c          1 ME1       0.673700
      7 C14         -1.5150     7.2190     0.4260 ca         1 ME1      -0.148600
      8 C15         -0.5440     6.9320     1.3840 ca         1 ME1      -0.087000
      9 C16          0.1550     5.7400     1.3450 ca         1 ME1      -0.122000
     10 C19         -1.7940     6.2780    -0.5600 ca         1 ME1      -0.087000
     11 C21          1.4390     3.3880    -0.7610 cc         1 ME1       0.023600
     12 C22          2.1410     2.2390    -0.9000 cd         1 ME1      -0.248000
     13 C24          1.1300     1.4210     1.1290 cc         1 ME1      -0.267200
     14 C4          -0.4540    11.8640     2.1100 cc         1 ME1      -0.126700
     15 S5           0.7690    10.6660     1.8930 ss         1 ME1      -0.057800
     16 C6          -1.6010    12.0300     1.1890 c          1 ME1       0.722700
     17 O7          -2.6270    12.5680     1.5760 o          1 ME1      -0.582100
     18 N8          -1.4260    11.5810    -0.0650 ns         1 ME1      -0.574900
     19 N11         -2.7070     9.0320    -0.6210 ns         1 ME1      -0.572900
     20 O13         -2.4060     9.0540     1.6230 o          1 ME1      -0.581100
     21 C17         -0.1330     4.8120     0.3540 ca         1 ME1       0.042600
     22 C18         -1.1110     5.0720    -0.5910 ca         1 ME1      -0.122000
     23 N20          0.5930     3.5860     0.2890 n          1 ME1      -0.271200
     24 C23          1.9730     1.2330     0.0820 cd         1 ME1      -0.035000
     25 C25          0.3740     2.6340     1.2900 c          1 ME1       0.698700
     26 O26         -0.4120     2.8650     2.2000 o          1 ME1      -0.612500
     27 CL27         2.9990    10.3970     3.8290 cl         1 ME1      -0.047400
     28 H2           1.2790    12.6610     4.8580 ha         1 ME1       0.168000
     29 H3          -0.8900    13.3870     3.5700 ha         1 ME1       0.174000
     30 H91         -2.0710    11.3540    -1.9980 h1         1 ME1       0.055700
     31 H92         -3.1050    12.3820    -1.0240 h1         1 ME1       0.055700
     32 H101        -4.1740    10.1990    -1.4960 h1         1 ME1       0.073200
     33 H102        -3.9600    10.4430     0.2290 h1         1 ME1       0.073200
     34 H15         -0.3250     7.6550     2.1580 ha         1 ME1       0.148000
     35 H16          0.9270     5.5400     2.0750 ha         1 ME1       0.149000
     36 H19         -2.5660     6.4540    -1.2980 ha         1 ME1       0.148000
     37 H22          2.8080     2.1110    -1.7380 ha         1 ME1       0.151000
     38 H24          0.9910     0.6560     1.8810 ha         1 ME1       0.160000
     39 HN8         -0.5280    11.2310    -0.3550 hn         1 ME1       0.313500
     40 HN11        -2.4300     8.6020    -1.4890 hn         1 ME1       0.309500
     41 H18         -1.3450     4.3330    -1.3470 ha         1 ME1       0.149000
     42 H23          2.5220     0.3040    -0.0050 ha         1 ME1       0.137000
     43 H21          1.5180     4.2060    -1.4630 h4         1 ME1       0.151000
@<TRIPOS>BOND
     1     1     2 2   
     2     1    15 1   
     3     1    27 1   
     4     2     3 1   
     5     2    28 1   
     6     3    14 2   
     7     3    29 1   
     8     4     5 1   
     9     4    18 1   
    10     4    30 1   
    11     4    31 1   
    12     5    19 1   
    13     5    32 1   
    14     5    33 1   
    15     6     7 1   
    16     6    19 1   
    17     6    20 2   
    18     7     8 ar  
    19     7    10 ar  
    20     8     9 ar  
    21     8    34 1   
    22     9    21 ar  
    23     9    35 1   
    24    10    22 ar  
    25    10    36 1   
    26    11    12 2   
    27    11    23 1   
    28    11    43 1   
    29    12    24 1   
    30    12    37 1   
    31    13    24 2   
    32    13    25 1   
    33    13    38 1   
    34    14    15 1   
    35    14    16 1   
    36    16    17 2   
    37    16    18 1   
    38    18    39 1   
    39    19    40 1   
    40    21    22 ar  
    41    21    23 1   
    42    22    41 1   
    43    23    25 1   
    44    24    42 1   
    45    25    26 2   
@<TRIPOS>SUBSTRUCTURE
     1 ME1         1 TEMP              0 ****  ****    0 ROOT
