@<TRIPOS>MOLECULE
ME2
   26    25     1     0     0
SMALL
No Charge or Current Charge


@<TRIPOS>ATOM
      1 C7          -1.4630    -0.7160     4.1480 c3         1 ME2      -0.091100
      2 C6          -0.5850     0.4060     3.5710 c3         1 ME2       0.161600
      3 O3           0.0920    -0.1190     2.4200 os         1 ME2      -0.449000
      4 C5           0.9630     0.8230     1.7600 c3         1 ME2       0.163600
      5 C4           1.6200     0.1360     0.5380 c3         1 ME2       0.161600
      6 O2           0.6270    -0.0460    -0.4910 os         1 ME2      -0.433000
      7 C3           1.1160    -0.6900    -1.6840 c3         1 ME2       0.161600
      8 C2          -0.0430    -0.8140    -2.7030 c3         1 ME2       0.159600
      9 O1          -0.3490     0.4930    -3.2320 os         1 ME2      -0.442000
     10 C1          -1.4200     0.5110    -4.1900 c3         1 ME2       0.145900
     11 H71         -2.0020    -0.3590     5.0330 hc         1 ME2       0.042367
     12 H72         -2.2000    -1.0490     3.4070 hc         1 ME2       0.042367
     13 H73         -0.8490    -1.5750     4.4430 hc         1 ME2       0.042367
     14 H61         -1.2170     1.2600     3.2960 h1         1 ME2       0.017200
     15 H62          0.1350     0.7340     4.3320 h1         1 ME2       0.017200
     16 H51          0.4060     1.7090     1.4270 h1         1 ME2       0.028200
     17 H52          1.7530     1.1540     2.4460 h1         1 ME2       0.028200
     18 H41          2.4350     0.7730     0.1700 h1         1 ME2       0.026200
     19 H42          2.0500    -0.8260     0.8460 h1         1 ME2       0.026200
     20 H31          1.9390    -0.1180    -2.1320 h1         1 ME2       0.026700
     21 H32          1.4870    -1.6950    -1.4470 h1         1 ME2       0.026700
     22 H21          0.2680    -1.4870    -3.5120 h1         1 ME2       0.029200
     23 H22         -0.9190    -1.2550    -2.2100 h1         1 ME2       0.029200
     24 H11         -1.5960     1.5340    -4.5470 h1         1 ME2       0.027033
     25 H12         -1.1780    -0.1170    -5.0570 h1         1 ME2       0.027033
     26 H13         -2.3510     0.1410    -3.7410 h1         1 ME2       0.027033
@<TRIPOS>BOND
     1     1     2 1   
     2     1    11 1   
     3     1    12 1   
     4     1    13 1   
     5     2     3 1   
     6     2    14 1   
     7     2    15 1   
     8     3     4 1   
     9     4     5 1   
    10     4    16 1   
    11     4    17 1   
    12     5     6 1   
    13     5    18 1   
    14     5    19 1   
    15     6     7 1   
    16     7     8 1   
    17     7    20 1   
    18     7    21 1   
    19     8     9 1   
    20     8    22 1   
    21     8    23 1   
    22     9    10 1   
    23    10    24 1   
    24    10    25 1   
    25    10    26 1   
@<TRIPOS>SUBSTRUCTURE
     1 ME2         1 TEMP              0 ****  ****    0 ROOT
