@<TRIPOS>MOLECULE
ME2
   26    25     1     0     0
SMALL
bcc


@<TRIPOS>ATOM
      1 C7          -1.5550    -0.6250     3.9950 c3         1 ME2      -0.091100
      2 C6          -0.5370     0.3710     3.4870 c3         1 ME2       0.138400
      3 O3           0.0400    -0.1210     2.2990 os         1 ME2      -0.402600
      4 C5           0.9850     0.7580     1.7450 c3         1 ME2       0.140400
      5 C4           1.5970     0.1380     0.5150 c3         1 ME2       0.138400
      6 O2           0.6180    -0.0140    -0.4810 os         1 ME2      -0.386600
      7 C3           1.1250    -0.6000    -1.6530 c3         1 ME2       0.138400
      8 C2           0.0180    -0.7660    -2.6620 c3         1 ME2       0.136400
      9 O1          -0.4470     0.4930    -3.0740 os         1 ME2      -0.395600
     10 C1          -1.4800     0.4000    -4.0200 c3         1 ME2       0.122700
     11 H71         -1.9960    -0.2610     4.9230 hc         1 ME2       0.042367
     12 H72         -2.3620    -0.7720     3.2770 hc         1 ME2       0.042367
     13 H73         -1.0960    -1.5930     4.2010 hc         1 ME2       0.042367
     14 H61         -1.0170     1.3430     3.3090 h1         1 ME2       0.017200
     15 H62          0.2380     0.5380     4.2480 h1         1 ME2       0.017200
     16 H51          0.5260     1.7240     1.4930 h1         1 ME2       0.028200
     17 H52          1.7970     0.9680     2.4560 h1         1 ME2       0.028200
     18 H41          2.4150     0.7870     0.1730 h1         1 ME2       0.026200
     19 H42          2.0490    -0.8310     0.7740 h1         1 ME2       0.026200
     20 H31          1.9360     0.0080    -2.0800 h1         1 ME2       0.026700
     21 H32          1.5480    -1.5930    -1.4470 h1         1 ME2       0.026700
     22 H21          0.4150    -1.3390    -3.5120 h1         1 ME2       0.029200
     23 H22         -0.7960    -1.3660    -2.2300 h1         1 ME2       0.029200
     24 H11         -1.7920     1.4100    -4.2830 h1         1 ME2       0.027033
     25 H12         -1.1580    -0.1120    -4.9350 h1         1 ME2       0.027033
     26 H13         -2.3520    -0.1390    -3.6270 h1         1 ME2       0.027033
@<TRIPOS>BOND
     1     1     2 1   
     2     1    11 1   
     3     1    12 1   
     4     1    13 1   
     5     2     3 1   
     6     2    14 1   
     7     2    15 1   
     8     3     4 1   
     9     4     5 1   
    10     4    16 1   
    11     4    17 1   
    12     5     6 1   
    13     5    18 1   
    14     5    19 1   
    15     6     7 1   
    16     7     8 1   
    17     7    20 1   
    18     7    21 1   
    19     8     9 1   
    20     8    22 1   
    21     8    23 1   
    22     9    10 1   
    23    10    24 1   
    24    10    25 1   
    25    10    26 1   
@<TRIPOS>SUBSTRUCTURE
     1 ME2         1 TEMP              0 ****  ****    0 ROOT
