@<TRIPOS>MOLECULE
ME4
   60    64     1     0     0
SMALL
No Charge or Current Charge


@<TRIPOS>ATOM
      1 C1          -1.4440    -0.3070     2.2560 c6         1 ME4       0.088700
      2 C2          -1.8930    -0.5610     0.7920 c6         1 ME4      -0.090400
      3 C3          -0.7230    -1.0290    -0.1120 c6         1 ME4      -0.078400
      4 C10         -0.4020    -1.0090     6.6400 ca         1 ME4      -0.114600
      5 C11          0.9540    -0.5790     6.6840 ca         1 ME4      -0.107000
      6 C12          1.5080    -0.2250     7.9220 ca         1 ME4      -0.058200
      7 C13          0.7760    -0.2840     9.0730 ca         1 ME4      -0.073800
      8 C14          1.6340     0.1410    10.1350 cc         1 ME4       0.032800
      9 C15          2.8670     0.4450     9.5770 cd         1 ME4      -0.146100
     10 C19         -1.1470    -1.0600     7.8530 ca         1 ME4      -0.081000
     11 C24          0.7470     3.7740     4.3000 ca         1 ME4      -0.069500
     12 C27          2.5340     3.8560     2.1500 ca         1 ME4      -0.102500
     13 N29          3.7410     5.7810     3.1530 n          1 ME4      -0.204200
     14 C30          4.3570     6.1000     4.3740 cc         1 ME4      -0.023400
     15 C31          5.3400     7.0640     4.4920 cd         1 ME4      -0.300000
     16 C32          5.7780     7.7790     3.3310 cd         1 ME4      -0.084000
     17 C33          5.1760     7.4760     2.1310 cc         1 ME4      -0.320200
     18 C34          4.1100     6.4760     1.9700 c          1 ME4       0.556200
     19 C4          -0.0320    -2.2820     0.4760 c6         1 ME4      -0.074400
     20 C5           0.4230    -2.0370     1.9360 c6         1 ME4      -0.086400
     21 C6          -0.7640    -1.5940     2.8340 c6         1 ME4       0.101700
     22 N7          -0.2910    -1.3770     4.2090 ns         1 ME4      -0.497900
     23 O9          -2.2580    -1.7210     5.2830 o          1 ME4      -0.596100
     24 N16          2.8000     0.2180     8.1770 na         1 ME4      -0.217700
     25 Cl17         1.1840     0.2470    11.8080 cl         1 ME4      -0.158000
     26 C18         -0.5600    -0.6980     9.0830 ca         1 ME4      -0.063000
     27 N20         -0.5500     0.8670     2.3200 ns         1 ME4      -0.506900
     28 O22         -1.2570     1.7270     4.2970 o          1 ME4      -0.588100
     29 C23          0.6150     2.8200     3.2670 ca         1 ME4      -0.143600
     30 C25          1.7520     4.7550     4.2530 ca         1 ME4      -0.102500
     31 C26          2.6350     4.8420     3.1540 ca         1 ME4       0.040600
     32 C28          1.5330     2.8700     2.1920 ca         1 ME4      -0.069500
     33 O35          3.5760     6.2960     0.8840 o          1 ME4      -0.544000
     34 H1          -2.3410    -0.0910     2.8560 h1         1 ME4       0.099700
     35 H21         -2.3450     0.3500     0.3770 hc         1 ME4       0.056200
     36 H22         -2.6840    -1.3240     0.7840 hc         1 ME4       0.056200
     37 H31A         0.0110    -0.2200    -0.2310 hc         1 ME4       0.040200
     38 H32A        -1.0990    -1.2530    -1.1200 hc         1 ME4       0.040200
     39 H11          1.5680    -0.5130     5.7900 ha         1 ME4       0.110000
     40 H15          3.7700     0.8000    10.0650 h4         1 ME4       0.225000
     41 H19         -2.1860    -1.3830     7.8430 ha         1 ME4       0.141000
     42 H24          0.0690     3.7570     5.1510 ha         1 ME4       0.128500
     43 H27          3.2470     3.8340     1.3300 ha         1 ME4       0.130000
     44 H30          4.0110     5.4910     5.2020 h4         1 ME4       0.205000
     45 H31          5.7910     7.2660     5.4620 ha         1 ME4       0.202000
     46 H32          6.5580     8.5380     3.3950 ha         1 ME4       0.187000
     47 H33          5.4550     7.9910     1.2180 ha         1 ME4       0.209000
     48 H41         -0.7230    -3.1350     0.4430 hc         1 ME4       0.045700
     49 H42          0.8320    -2.5570    -0.1430 hc         1 ME4       0.045700
     50 H51          0.8660    -2.9590     2.3380 hc         1 ME4       0.042700
     51 H52          1.2190    -1.2790     1.9530 hc         1 ME4       0.042700
     52 H6          -1.5080    -2.4050     2.8490 h1         1 ME4       0.084700
     53 HN7          0.6740    -1.1090     4.3400 hn         1 ME4       0.307500
     54 HN16         3.5450     0.3510     7.5000 hn         1 ME4       0.352000
     55 H18         -1.1290    -0.7380    10.0090 ha         1 ME4       0.128000
     56 HN20         0.1190     0.9870     1.5720 hn         1 ME4       0.314500
     57 H25          1.8090     5.4750     5.0650 ha         1 ME4       0.130000
     58 H28          1.4980     2.1430     1.3840 ha         1 ME4       0.128500
     59 C8          -1.0770    -1.3990     5.3390 c          1 ME4       0.621700
     60 C21         -0.4770     1.7730     3.3560 c          1 ME4       0.606700
@<TRIPOS>BOND
     1     1     2 1   
     2     1    21 1   
     3     1    27 1   
     4     1    34 1   
     5     2     3 1   
     6     2    35 1   
     7     2    36 1   
     8     3    19 1   
     9     3    37 1   
    10     3    38 1   
    11     4     5 ar  
    12     4    10 ar  
    13     4    59 1   
    14     5     6 ar  
    15     5    39 1   
    16     6     7 ar  
    17     6    24 1   
    18     7     8 1   
    19     7    26 ar  
    20     8     9 2   
    21     8    25 1   
    22     9    24 1   
    23     9    40 1   
    24    10    26 ar  
    25    10    41 1   
    26    11    29 ar  
    27    11    30 ar  
    28    11    42 1   
    29    12    31 ar  
    30    12    32 ar  
    31    12    43 1   
    32    13    14 1   
    33    13    18 1   
    34    13    31 1   
    35    14    15 2   
    36    14    44 1   
    37    15    16 1   
    38    15    45 1   
    39    16    17 2   
    40    16    46 1   
    41    17    18 1   
    42    17    47 1   
    43    18    33 2   
    44    19    20 1   
    45    19    48 1   
    46    19    49 1   
    47    20    21 1   
    48    20    50 1   
    49    20    51 1   
    50    21    22 1   
    51    21    52 1   
    52    22    53 1   
    53    22    59 1   
    54    23    59 2   
    55    24    54 1   
    56    26    55 1   
    57    27    56 1   
    58    27    60 1   
    59    28    60 2   
    60    29    32 ar  
    61    29    60 1   
    62    30    31 ar  
    63    30    57 1   
    64    32    58 1   
@<TRIPOS>SUBSTRUCTURE
     1 ME4         1 TEMP              0 ****  ****    0 ROOT
