@<TRIPOS>MOLECULE
ME4
   60    64     1     0     0
SMALL
bcc


@<TRIPOS>ATOM
      1 C1          -1.3400    -0.2170     2.2810 c6         1 ME4       0.088700
      2 C2          -1.8090    -0.4490     0.8460 c6         1 ME4      -0.090400
      3 C3          -0.7060    -0.9970    -0.0540 c6         1 ME4      -0.078400
      4 C10         -0.2600    -0.9120     6.5700 ca         1 ME4      -0.114600
      5 C11          1.0940    -1.1430     6.7500 ca         1 ME4      -0.125000
      6 C12          1.6550    -0.8060     7.9770 ca         1 ME4      -0.058200
      7 C13          0.8860    -0.2480     9.0200 ca         1 ME4      -0.073800
      8 C14          1.7890    -0.0430    10.0990 cc         1 ME4      -0.042800
      9 C15          3.0250    -0.4650     9.7020 cd         1 ME4      -0.096100
     10 C19         -1.0380    -0.3680     7.6130 ca         1 ME4      -0.099000
     11 C24          0.3910     4.1080     3.8030 ca         1 ME4      -0.087500
     12 C27          2.8660     3.6180     2.6430 ca         1 ME4      -0.120500
     13 N29          3.5780     5.8820     3.1950 n          1 ME4      -0.271200
     14 C30          4.2020     6.1780     4.3690 cc         1 ME4       0.026600
     15 C31          5.1390     7.1520     4.4470 cd         1 ME4      -0.250000
     16 C32          5.4560     7.8660     3.2650 cd         1 ME4      -0.034000
     17 C33          4.8350     7.5790     2.0920 cc         1 ME4      -0.270200
     18 C34          3.8360     6.5490     1.9950 c          1 ME4       0.698700
     19 C4          -0.1060    -2.2680     0.5370 c6         1 ME4      -0.074400
     20 C5           0.3970    -2.0360     1.9570 c6         1 ME4      -0.086400
     21 C6          -0.7100    -1.4990     2.8580 c6         1 ME4       0.101700
     22 N7          -0.1880    -1.2800     4.1890 ns         1 ME4      -0.564900
     23 O9          -2.1560    -1.4970     5.2710 o          1 ME4      -0.596100
     24 N16          2.9380    -0.9260     8.4240 na         1 ME4      -0.167400
     25 CL17         1.3800     0.6150    11.6280 cl         1 ME4      -0.082400
     26 C18         -0.4810    -0.0290     8.8250 ca         1 ME4      -0.081000
     27 N20         -0.4030     0.8890     2.3460 ns         1 ME4      -0.573900
     28 O22         -1.2180     1.8220     4.2420 o          1 ME4      -0.588100
     29 C23          0.6530     2.8630     3.2390 ca         1 ME4      -0.143600
     30 C25          1.3460     5.1100     3.7670 ca         1 ME4      -0.120500
     31 C26          2.5820     4.8590     3.1910 ca         1 ME4       0.040600
     32 C28          1.9010     2.6250     2.6660 ca         1 ME4      -0.087500
     33 O35          3.2260     6.2440     0.9770 o          1 ME4      -0.619500
     34 H1          -2.2010     0.0540     2.8930 h1         1 ME4       0.099700
     35 H21         -2.2190     0.4800     0.4440 hc         1 ME4       0.056200
     36 H22         -2.6340    -1.1660     0.8760 hc         1 ME4       0.056200
     37 H31A         0.0840    -0.2500    -0.1970 hc         1 ME4       0.040200
     38 H32A        -1.1100    -1.1940    -1.0490 hc         1 ME4       0.040200
     39 H11          1.7090    -1.5970     5.9820 ha         1 ME4       0.128000
     40 H15          3.9600    -0.4670    10.2380 h4         1 ME4       0.175000
     41 H19         -2.0940    -0.2060     7.4490 ha         1 ME4       0.159000
     42 H24         -0.5680     4.3020     4.2630 ha         1 ME4       0.146500
     43 H27          3.8410     3.4180     2.2180 ha         1 ME4       0.148000
     44 H30          3.9060     5.5840     5.2220 h4         1 ME4       0.155000
     45 H31          5.6240     7.3630     5.3870 ha         1 ME4       0.152000
     46 H32          6.2010     8.6500     3.3000 ha         1 ME4       0.137000
     47 H33          5.0670     8.1240     1.1870 ha         1 ME4       0.159000
     48 H41         -0.8670    -3.0550     0.5470 hc         1 ME4       0.045700
     49 H42          0.7110    -2.6330    -0.0890 hc         1 ME4       0.045700
     50 H51          0.7860    -2.9650     2.3810 hc         1 ME4       0.042700
     51 H52          1.2360    -1.3280     1.9370 hc         1 ME4       0.042700
     52 H6          -1.5020    -2.2510     2.9250 h1         1 ME4       0.084700
     53 HN7          0.7530    -0.9280     4.2500 hn         1 ME4       0.307500
     54 HN16         3.7160    -1.2820     7.8920 hn         1 ME4       0.301700
     55 H18         -1.0900     0.3970     9.6110 ha         1 ME4       0.146000
     56 HN20         0.2070     1.0340     1.5570 hn         1 ME4       0.314500
     57 H25          1.1310     6.0840     4.1870 ha         1 ME4       0.148000
     58 H28          2.1520     1.6540     2.2570 ha         1 ME4       0.146500
     59 C8          -0.9570    -1.2510     5.2930 c          1 ME4       0.688700
     60 C21         -0.4080     1.8110     3.3280 c          1 ME4       0.673700
@<TRIPOS>BOND
     1     1     2 1   
     2     1    21 1   
     3     1    27 1   
     4     1    34 1   
     5     2     3 1   
     6     2    35 1   
     7     2    36 1   
     8     3    19 1   
     9     3    37 1   
    10     3    38 1   
    11     4     5 ar  
    12     4    10 ar  
    13     4    59 1   
    14     5     6 ar  
    15     5    39 1   
    16     6     7 ar  
    17     6    24 1   
    18     7     8 1   
    19     7    26 ar  
    20     8     9 2   
    21     8    25 1   
    22     9    24 1   
    23     9    40 1   
    24    10    26 ar  
    25    10    41 1   
    26    11    29 ar  
    27    11    30 ar  
    28    11    42 1   
    29    12    31 ar  
    30    12    32 ar  
    31    12    43 1   
    32    13    14 1   
    33    13    18 1   
    34    13    31 1   
    35    14    15 2   
    36    14    44 1   
    37    15    16 1   
    38    15    45 1   
    39    16    17 2   
    40    16    46 1   
    41    17    18 1   
    42    17    47 1   
    43    18    33 2   
    44    19    20 1   
    45    19    48 1   
    46    19    49 1   
    47    20    21 1   
    48    20    50 1   
    49    20    51 1   
    50    21    22 1   
    51    21    52 1   
    52    22    53 1   
    53    22    59 1   
    54    23    59 2   
    55    24    54 1   
    56    26    55 1   
    57    27    56 1   
    58    27    60 1   
    59    28    60 2   
    60    29    32 ar  
    61    29    60 1   
    62    30    31 ar  
    63    30    57 1   
    64    32    58 1   
@<TRIPOS>SUBSTRUCTURE
     1 ME4         1 TEMP              0 ****  ****    0 ROOT
