@<TRIPOS>MOLECULE
ME5
   50    53     1     0     0
SMALL
abcg2


@<TRIPOS>ATOM
      1 C1           2.8540    -4.5130    -1.0680 c          1 ME5       0.636700
      2 C2           5.0710    -5.6290    -1.5500 cc         1 ME5      -0.058000
      3 C3           4.3300    -4.5480    -1.1690 cd         1 ME5      -0.293600
      4 C7           1.7220    -5.9710     2.5040 ca         1 ME5      -0.132600
      5 C8           0.4200    -1.7410    -1.4030 c5         1 ME5      -0.099400
      6 C10          0.8610    -0.6730    -0.3820 c5         1 ME5      -0.080400
      7 C12          1.0950    -1.4260     0.9420 c5         1 ME5      -0.093400
      8 C13          0.6160    -2.8580     0.6870 c5         1 ME5       0.096700
      9 C14          3.9090    -6.7480     3.1670 ca         1 ME5      -0.104000
     10 C15          4.1960    -9.9640     4.1850 cc         1 ME5      -0.020400
     11 C16          3.3170    -7.7480     3.9230 ca         1 ME5       0.037600
     12 C19          0.8770    -3.0710    -0.8180 c5         1 ME5       0.093700
     13 C21          4.7920    -8.2300     5.7820 c          1 ME5       0.556200
     14 C22          1.1450    -6.9940     3.2490 ca         1 ME5      -0.064500
     15 C24          5.5710    -9.2380     6.4490 cc         1 ME5      -0.323200
     16 C44          3.1110    -5.8630     2.4620 ca         1 ME5      -0.064500
     17 N2           4.1300    -8.6800     4.6360 n          1 ME5      -0.202200
     18 C18          1.9370    -7.8720     3.9700 ca         1 ME5      -0.104000
     19 C23          4.9290   -10.9030     4.8280 cd         1 ME5      -0.303000
     20 C26          5.6350   -10.5150     5.9920 cd         1 ME5      -0.083000
     21 N4           1.2720    -3.8100     1.5440 ns         1 ME5      -0.496900
     22 N1           2.2900    -3.2900    -1.0610 ns         1 ME5      -0.506900
     23 O3           2.2240    -5.5550    -0.9870 o          1 ME5      -0.576100
     24 C4           6.4660    -5.3920    -1.5210 cc         1 ME5      -0.132000
     25 S1           5.3430    -3.2170    -0.7360 ss         1 ME5       0.230000
     26 C5           6.7500    -4.1290    -1.0990 cd         1 ME5      -0.015000
     27 CL1          8.2940    -3.4370    -0.9030 cl         1 ME5      -0.131000
     28 H2           4.6300    -6.5670    -1.8520 ha         1 ME5       0.158000
     29 H81         -0.6670    -1.7610    -1.4840 hc         1 ME5       0.059200
     30 H82          0.8090    -1.5680    -2.4070 hc         1 ME5       0.059200
     31 H101         0.1000     0.1000    -0.2770 hc         1 ME5       0.046700
     32 H102         1.7720    -0.1680    -0.7050 hc         1 ME5       0.046700
     33 H121         2.1590    -1.4300     1.1970 hc         1 ME5       0.049200
     34 H122         0.5730    -0.9740     1.7850 hc         1 ME5       0.049200
     35 H13         -0.4640    -2.9190     0.8460 h1         1 ME5       0.082700
     36 H14          4.9860    -6.6700     3.1130 ha         1 ME5       0.128000
     37 H15          3.6390   -10.1770     3.2840 h4         1 ME5       0.207000
     38 H19          0.3170    -3.9180    -1.2120 h1         1 ME5       0.101700
     39 H22          0.0690    -7.1010     3.2800 ha         1 ME5       0.127000
     40 H24          6.1020    -8.9350     7.3410 ha         1 ME5       0.208000
     41 H44          3.5950    -5.1060     1.8590 ha         1 ME5       0.127000
     42 H18          1.4820    -8.6540     4.5650 ha         1 ME5       0.128000
     43 H23          4.9690   -11.9120     4.4470 ha         1 ME5       0.201000
     44 H26          6.2320   -11.2450     6.5220 ha         1 ME5       0.185000
     45 HN4          2.1230    -3.5210     1.9980 hn         1 ME5       0.316500
     46 HN1          2.8480    -2.4890    -1.3170 hn         1 ME5       0.314500
     47 H4           7.2170    -6.1180    -1.7940 ha         1 ME5       0.152000
     48 C17          0.8230    -5.0630     1.7260 c          1 ME5       0.625700
     49 O1           4.6770    -7.0660     6.1440 o          1 ME5      -0.546000
     50 O2          -0.2570    -5.4530     1.3070 o          1 ME5      -0.591100
@<TRIPOS>BOND
     1     1     3 1   
     2     1    22 1   
     3     1    23 2   
     4     2     3 2   
     5     2    24 1   
     6     2    28 1   
     7     3    25 1   
     8     4    14 ar  
     9     4    16 ar  
    10     4    48 1   
    11     5     6 1   
    12     5    12 1   
    13     5    29 1   
    14     5    30 1   
    15     6     7 1   
    16     6    31 1   
    17     6    32 1   
    18     7     8 1   
    19     7    33 1   
    20     7    34 1   
    21     8    12 1   
    22     8    21 1   
    23     8    35 1   
    24     9    11 ar  
    25     9    16 ar  
    26     9    36 1   
    27    10    17 1   
    28    10    19 2   
    29    10    37 1   
    30    11    17 1   
    31    11    18 ar  
    32    12    22 1   
    33    12    38 1   
    34    13    15 1   
    35    13    17 1   
    36    13    49 2   
    37    14    18 ar  
    38    14    39 1   
    39    15    20 2   
    40    15    40 1   
    41    16    41 1   
    42    18    42 1   
    43    19    20 1   
    44    19    43 1   
    45    20    44 1   
    46    21    45 1   
    47    21    48 1   
    48    22    46 1   
    49    24    26 2   
    50    24    47 1   
    51    25    26 1   
    52    26    27 1   
    53    48    50 2   
@<TRIPOS>SUBSTRUCTURE
     1 ME5         1 TEMP              0 ****  ****    0 ROOT
