@<TRIPOS>MOLECULE
ME5
   50    53     1     0     0
SMALL
No Charge or Current Charge


@<TRIPOS>ATOM
      1 C1           2.1400    -5.0340    -1.0420 c          1 ME5       0.636700
      2 C2           3.5690    -7.0650    -0.6620 cc         1 ME5      -0.058000
      3 C3           3.3760    -5.7050    -0.5890 cd         1 ME5      -0.293600
      4 C7           1.7700    -5.4230     2.5760 ca         1 ME5      -0.132600
      5 C8           1.1550    -1.6530    -1.6390 c5         1 ME5      -0.099400
      6 C10          0.6530    -0.5100    -0.7110 c5         1 ME5      -0.080400
      7 C12          1.0880    -1.0380     0.6780 c5         1 ME5      -0.093400
      8 C13          0.4540    -2.4500     0.6240 c5         1 ME5       0.096700
      9 C14          3.8940    -5.7780     3.7430 ca         1 ME5      -0.104000
     10 C15          5.0130    -9.2340     3.4580 cc         1 ME5      -0.020400
     11 C16          3.7030    -7.1760     3.7430 ca         1 ME5       0.037600
     12 C19          0.8350    -2.9610    -0.8330 c5         1 ME5       0.093700
     13 C21          5.4680    -7.8150     5.3970 c          1 ME5       0.556200
     14 C22          1.5860    -6.8210     2.5560 ca         1 ME5      -0.064500
     15 C24          6.4630    -8.8320     5.7660 cc         1 ME5      -0.323200
     16 C44          2.9380    -4.9110     3.1860 ca         1 ME5      -0.064500
     17 N2           4.7650    -8.0590     4.1860 n          1 ME5      -0.202200
     18 C18          2.5470    -7.6830     3.1100 ca         1 ME5      -0.104000
     19 C23          5.9420   -10.1790     3.8460 cd         1 ME5      -0.303000
     20 C26          6.7070    -9.9750     5.0400 cd         1 ME5      -0.083000
     21 N4           1.1680    -3.2290     1.6550 ns         1 ME5      -0.496900
     22 N1           2.1300    -3.6790    -0.7790 ns         1 ME5      -0.506900
     23 O3           1.2110    -5.6280    -1.5700 o          1 ME5      -0.576100
     24 C4           4.7510    -7.5060    -0.0170 cc         1 ME5      -0.132000
     25 S1           4.7290    -4.9100     0.2460 ss         1 ME5       0.230000
     26 C5           5.4700    -6.4900     0.5550 cd         1 ME5      -0.015000
     27 Cl1          6.9360    -6.6800     1.4600 cl         1 ME5      -0.131000
     28 H2           2.8690    -7.7590    -1.1210 ha         1 ME5       0.158000
     29 H81          0.6480    -1.6400    -2.6100 hc         1 ME5       0.059200
     30 H82          2.2260    -1.5290    -1.8480 hc         1 ME5       0.059200
     31 H101        -0.4350    -0.3810    -0.7750 hc         1 ME5       0.046700
     32 H102         1.1110     0.4550    -0.9550 hc         1 ME5       0.046700
     33 H121         2.1820    -1.0590     0.7730 hc         1 ME5       0.049200
     34 H122         0.6930    -0.4330     1.5020 hc         1 ME5       0.049200
     35 H13         -0.6350    -2.4110     0.7740 h1         1 ME5       0.082700
     36 H14          4.8050    -5.3490     4.1500 ha         1 ME5       0.128000
     37 H15          4.4340    -9.3020     2.5440 h4         1 ME5       0.207000
     38 H19          0.0110    -3.5340    -1.2820 h1         1 ME5       0.101700
     39 H22          0.7070    -7.2510     2.0790 ha         1 ME5       0.127000
     40 H24          7.0000    -8.6270     6.6850 ha         1 ME5       0.208000
     41 H44          3.1360    -3.8430     3.2220 ha         1 ME5       0.127000
     42 H18          2.3680    -8.7540     3.0650 ha         1 ME5       0.128000
     43 H23          6.1030   -11.0660     3.2370 ha         1 ME5       0.201000
     44 H26          7.4520   -10.7010     5.3650 ha         1 ME5       0.185000
     45 HN4          2.0670    -2.9560     2.0250 hn         1 ME5       0.316500
     46 HN1          2.9650    -3.2830    -0.3700 hn         1 ME5       0.314500
     47 H4           5.0320    -8.5530     0.0350 ha         1 ME5       0.152000
     48 C17          0.7620    -4.5320     1.8800 c          1 ME5       0.625700
     49 O1           5.2600    -6.8480     6.1170 o          1 ME5      -0.546000
     50 O2          -0.3290    -4.9460     1.5110 o          1 ME5      -0.591100
@<TRIPOS>BOND
     1     1     3 1   
     2     1    22 1   
     3     1    23 2   
     4     2     3 2   
     5     2    24 1   
     6     2    28 1   
     7     3    25 1   
     8     4    14 ar  
     9     4    16 ar  
    10     4    48 1   
    11     5     6 1   
    12     5    12 1   
    13     5    29 1   
    14     5    30 1   
    15     6     7 1   
    16     6    31 1   
    17     6    32 1   
    18     7     8 1   
    19     7    33 1   
    20     7    34 1   
    21     8    12 1   
    22     8    21 1   
    23     8    35 1   
    24     9    11 ar  
    25     9    16 ar  
    26     9    36 1   
    27    10    17 1   
    28    10    19 2   
    29    10    37 1   
    30    11    17 1   
    31    11    18 ar  
    32    12    22 1   
    33    12    38 1   
    34    13    15 1   
    35    13    17 1   
    36    13    49 2   
    37    14    18 ar  
    38    14    39 1   
    39    15    20 2   
    40    15    40 1   
    41    16    41 1   
    42    18    42 1   
    43    19    20 1   
    44    19    43 1   
    45    20    44 1   
    46    21    45 1   
    47    21    48 1   
    48    22    46 1   
    49    24    26 2   
    50    24    47 1   
    51    25    26 1   
    52    26    27 1   
    53    48    50 2   
@<TRIPOS>SUBSTRUCTURE
     1 ME5         1 TEMP              0 ****  ****    0 ROOT
