@<TRIPOS>MOLECULE
ME7
   24    25     1     0     0
SMALL
No Charge or Current Charge


@<TRIPOS>ATOM
      1 OAA          2.2670     2.3220     0.1570 o          1 ME7      -0.466250
      2 OAB          2.2350    -2.3150     0.1280 o          1 ME7      -0.466250
      3 OAD         -2.2530    -2.2800    -0.1690 o          1 ME7      -0.466250
      4 CAE          4.0010     0.6840    -0.2710 cc         1 ME7      -0.232700
      5 CAF          3.9930    -0.6950    -0.2800 cd         1 ME7      -0.232700
      6 CAG         -3.9750     0.7400     0.2690 cc         1 ME7      -0.232700
      7 CAH         -3.9870    -0.6390     0.2600 cd         1 ME7      -0.232700
      8 CAI          0.4880     0.0150     0.5970 c3         1 ME7       0.093000
      9 CAJ         -0.4710     0.0290    -0.6080 c3         1 ME7       0.093000
     10 CAK          2.6590     1.1720     0.0470 c          1 ME7       0.551450
     11 CAL          2.6410    -1.1680     0.0330 c          1 ME7       0.551450
     12 CAM         -2.6250     1.2110    -0.0430 c          1 ME7       0.551450
     13 CAN         -2.6420    -1.1280    -0.0590 c          1 ME7       0.551450
     14 NAO          1.9100     0.0060     0.1980 n          1 ME7      -0.401400
     15 NAP         -1.8940     0.0370    -0.2090 n          1 ME7      -0.401400
     16 HAE          4.8310     1.3600    -0.4530 ha         1 ME7       0.227000
     17 HAF          4.8090    -1.3840    -0.4700 ha         1 ME7       0.227000
     18 HAG         -4.7940     1.4250     0.4600 ha         1 ME7       0.227000
     19 HAH         -4.8130    -1.3180     0.4420 ha         1 ME7       0.227000
     20 HAI          0.2920     0.8960     1.2210 h1         1 ME7       0.075200
     21 HAIA         0.2790    -0.8720     1.2100 h1         1 ME7       0.075200
     22 HAJ         -0.2630     0.9160    -1.2210 h1         1 ME7       0.075200
     23 HAJA        -0.2760    -0.8520    -1.2320 h1         1 ME7       0.075200
     24 OAC         -2.2160     2.3570    -0.1380 o          1 ME7      -0.466250
@<TRIPOS>BOND
     1     1    10 2   
     2     2    11 2   
     3     3    13 2   
     4     4     5 2   
     5     4    10 1   
     6     4    16 1   
     7     5    11 1   
     8     5    17 1   
     9     6     7 2   
    10     6    12 1   
    11     6    18 1   
    12     7    13 1   
    13     7    19 1   
    14     8     9 1   
    15     8    14 1   
    16     8    20 1   
    17     8    21 1   
    18     9    15 1   
    19     9    22 1   
    20     9    23 1   
    21    10    14 1   
    22    11    14 1   
    23    12    15 1   
    24    12    24 2   
    25    13    15 1   
@<TRIPOS>SUBSTRUCTURE
     1 ME7         1 TEMP              0 ****  ****    0 ROOT
