@<TRIPOS>MOLECULE
ME7
   24    25     1     0     0
SMALL
abcg2


@<TRIPOS>ATOM
      1 OAA          2.2510     2.2770     0.2030 o          1 ME7      -0.466250
      2 OAB          2.1890    -2.2590     0.1110 o          1 ME7      -0.466250
      3 OAD         -2.2210    -2.2340    -0.1670 o          1 ME7      -0.466250
      4 CAE          3.9930     0.6570    -0.2750 cc         1 ME7      -0.232700
      5 CAF          3.9760    -0.6690    -0.3010 cd         1 ME7      -0.232700
      6 CAG         -3.9630     0.7120     0.2760 cc         1 ME7      -0.232700
      7 CAH         -3.9730    -0.6150     0.2770 cd         1 ME7      -0.232700
      8 CAI          0.4510     0.0220     0.6170 c3         1 ME7       0.093000
      9 CAJ         -0.4340     0.0210    -0.6270 c3         1 ME7       0.093000
     10 CAK          2.6280     1.1410     0.0860 c          1 ME7       0.551450
     11 CAL          2.5980    -1.1300     0.0400 c          1 ME7       0.551450
     12 CAM         -2.5880     1.1730    -0.0740 c          1 ME7       0.551450
     13 CAN         -2.6060    -1.0980    -0.0730 c          1 ME7       0.551450
     14 NAO          1.8510     0.0110     0.2680 n          1 ME7      -0.401400
     15 NAP         -1.8340     0.0320    -0.2780 n          1 ME7      -0.401400
     16 HAE          4.8160     1.3280    -0.4710 ha         1 ME7       0.227000
     17 HAF          4.7800    -1.3520    -0.5250 ha         1 ME7       0.227000
     18 HAG         -4.7710     1.3960     0.4860 ha         1 ME7       0.227000
     19 HAH         -4.7920    -1.2860     0.4870 ha         1 ME7       0.227000
     20 HAI          0.2560     0.9060     1.2240 h1         1 ME7       0.075200
     21 HAIA         0.2430    -0.8500     1.2370 h1         1 ME7       0.075200
     22 HAJ         -0.2270     0.8950    -1.2440 h1         1 ME7       0.075200
     23 HAJA        -0.2390    -0.8610    -1.2360 h1         1 ME7       0.075200
     24 OAC         -2.1860     2.3030    -0.1690 o          1 ME7      -0.466250
@<TRIPOS>BOND
     1     1    10 2   
     2     2    11 2   
     3     3    13 2   
     4     4     5 2   
     5     4    10 1   
     6     4    16 1   
     7     5    11 1   
     8     5    17 1   
     9     6     7 2   
    10     6    12 1   
    11     6    18 1   
    12     7    13 1   
    13     7    19 1   
    14     8     9 1   
    15     8    14 1   
    16     8    20 1   
    17     8    21 1   
    18     9    15 1   
    19     9    22 1   
    20     9    23 1   
    21    10    14 1   
    22    11    14 1   
    23    12    15 1   
    24    12    24 2   
    25    13    15 1   
@<TRIPOS>SUBSTRUCTURE
     1 ME7         1 TEMP              0 ****  ****    0 ROOT
