@<TRIPOS>MOLECULE
ME9
   30    31     1     0     0
SMALL
No Charge or Current Charge


@<TRIPOS>ATOM
      1 OAA         -3.4930    -2.3350     0.2010 o          1 ME9      -0.475250
      2 OAB         -3.5070     2.3040     0.1720 o          1 ME9      -0.475250
      3 OAD          3.5070    -2.3220    -0.1670 o          1 ME9      -0.475250
      4 CAE         -5.1860    -0.7150    -0.4150 cc         1 ME9      -0.234200
      5 CAF         -5.1910     0.6640    -0.4240 cd         1 ME9      -0.234200
      6 CAG          5.1870     0.6960     0.4200 cc         1 ME9      -0.234200
      7 CAH          5.1920    -0.6830     0.4290 cd         1 ME9      -0.234200
      8 CAI         -0.7190    -0.0120    -0.2780 c3         1 ME9      -0.095400
      9 CAJ          0.7200    -0.0060     0.2840 c3         1 ME9      -0.095400
     10 CAK         -1.7960    -0.0080     0.8240 c3         1 ME9       0.115000
     11 CAL          1.7970    -0.0100    -0.8180 c3         1 ME9       0.115000
     12 CAM         -3.8810    -1.1880     0.0470 c          1 ME9       0.552700
     13 CAN         -3.8860     1.1510     0.0320 c          1 ME9       0.552700
     14 CAO          3.8820     1.1690    -0.0410 c          1 ME9       0.552700
     15 CAP          3.8870    -1.1700    -0.0270 c          1 ME9       0.552700
     16 NAQ         -3.1650    -0.0150     0.2750 n          1 ME9      -0.398400
     17 NAR          3.1660    -0.0030    -0.2700 n          1 ME9      -0.398400
     18 HAE         -5.9840    -1.3990    -0.6840 ha         1 ME9       0.226000
     19 HAF         -5.9890     1.3440    -0.7010 ha         1 ME9       0.226000
     20 HAG          5.9860     1.3790     0.6900 ha         1 ME9       0.226000
     21 HAH          5.9900    -1.3640     0.7060 ha         1 ME9       0.226000
     22 HAI         -0.8610     0.8660    -0.9210 hc         1 ME9       0.053700
     23 HAIA        -0.8570    -0.8990    -0.9100 hc         1 ME9       0.053700
     24 HAJ          0.8580     0.8810     0.9160 hc         1 ME9       0.053700
     25 HAJA         0.8620    -0.8840     0.9270 hc         1 ME9       0.053700
     26 HAK         -1.6620    -0.8880     1.4670 h1         1 ME9       0.065700
     27 HAKA        -1.6660     0.8800     1.4560 h1         1 ME9       0.065700
     28 HAL          1.6670    -0.8980    -1.4510 h1         1 ME9       0.065700
     29 HALA         1.6630     0.8700    -1.4610 h1         1 ME9       0.065700
     30 OAC          3.4940     2.3170    -0.1950 o          1 ME9      -0.475250
@<TRIPOS>BOND
     1     1    12 2   
     2     2    13 2   
     3     3    15 2   
     4     4     5 2   
     5     4    12 1   
     6     4    18 1   
     7     5    13 1   
     8     5    19 1   
     9     6     7 2   
    10     6    14 1   
    11     6    20 1   
    12     7    15 1   
    13     7    21 1   
    14     8     9 1   
    15     8    10 1   
    16     8    22 1   
    17     8    23 1   
    18     9    11 1   
    19     9    24 1   
    20     9    25 1   
    21    10    16 1   
    22    10    26 1   
    23    10    27 1   
    24    11    17 1   
    25    11    28 1   
    26    11    29 1   
    27    12    16 1   
    28    13    16 1   
    29    14    17 1   
    30    14    30 2   
    31    15    17 1   
@<TRIPOS>SUBSTRUCTURE
     1 ME9         1 TEMP              0 ****  ****    0 ROOT
