@<TRIPOS>MOLECULE
ME9
   30    31     1     0     0
SMALL
abcg2


@<TRIPOS>ATOM
      1 OAA         -3.4560    -2.2850     0.2150 o          1 ME9      -0.475250
      2 OAB         -3.4610     2.2520     0.1740 o          1 ME9      -0.475250
      3 OAD          3.4690    -2.2720    -0.1840 o          1 ME9      -0.475250
      4 CAE         -5.1640    -0.6870    -0.4310 cc         1 ME9      -0.234200
      5 CAF         -5.1650     0.6390    -0.4430 cd         1 ME9      -0.234200
      6 CAG          5.1620     0.6690     0.4420 cc         1 ME9      -0.234200
      7 CAH          5.1680    -0.6570     0.4450 cd         1 ME9      -0.234200
      8 CAI         -0.7070    -0.0120    -0.2780 c3         1 ME9      -0.095400
      9 CAJ          0.7090    -0.0050     0.2830 c3         1 ME9      -0.095400
     10 CAK         -1.7410    -0.0080     0.8390 c3         1 ME9       0.115000
     11 CAL          1.7420    -0.0110    -0.8330 c3         1 ME9       0.115000
     12 CAM         -3.8360    -1.1510     0.0700 c          1 ME9       0.552700
     13 CAN         -3.8380     1.1150     0.0490 c          1 ME9       0.552700
     14 CAO          3.8330     1.1320    -0.0570 c          1 ME9       0.552700
     15 CAP          3.8430    -1.1340    -0.0510 c          1 ME9       0.552700
     16 NAQ         -3.1030    -0.0150     0.3470 n          1 ME9      -0.398400
     17 NAR          3.1040    -0.0050    -0.3430 n          1 ME9      -0.398400
     18 HAE         -5.9490    -1.3680    -0.7200 ha         1 ME9       0.226000
     19 HAF         -5.9530     1.3130    -0.7430 ha         1 ME9       0.226000
     20 HAG          5.9470     1.3510     0.7340 ha         1 ME9       0.226000
     21 HAH          5.9570    -1.3310     0.7410 ha         1 ME9       0.226000
     22 HAI         -0.8560     0.8620    -0.9180 hc         1 ME9       0.053700
     23 HAIA        -0.8510    -0.8950    -0.9080 hc         1 ME9       0.053700
     24 HAJ          0.8530     0.8770     0.9120 hc         1 ME9       0.053700
     25 HAJA         0.8570    -0.8780     0.9250 hc         1 ME9       0.053700
     26 HAK         -1.6140    -0.8790     1.4820 h1         1 ME9       0.065700
     27 HAKA        -1.6180     0.8720     1.4710 h1         1 ME9       0.065700
     28 HAL          1.6200    -0.8920    -1.4640 h1         1 ME9       0.065700
     29 HALA         1.6150     0.8590    -1.4780 h1         1 ME9       0.065700
     30 OAC          3.4500     2.2660    -0.1940 o          1 ME9      -0.475250
@<TRIPOS>BOND
     1     1    12 2   
     2     2    13 2   
     3     3    15 2   
     4     4     5 2   
     5     4    12 1   
     6     4    18 1   
     7     5    13 1   
     8     5    19 1   
     9     6     7 2   
    10     6    14 1   
    11     6    20 1   
    12     7    15 1   
    13     7    21 1   
    14     8     9 1   
    15     8    10 1   
    16     8    22 1   
    17     8    23 1   
    18     9    11 1   
    19     9    24 1   
    20     9    25 1   
    21    10    16 1   
    22    10    26 1   
    23    10    27 1   
    24    11    17 1   
    25    11    28 1   
    26    11    29 1   
    27    12    16 1   
    28    13    16 1   
    29    14    17 1   
    30    14    30 2   
    31    15    17 1   
@<TRIPOS>SUBSTRUCTURE
     1 ME9         1 TEMP              0 ****  ****    0 ROOT
