@<TRIPOS>MOLECULE
MEA
   25    25     1     0     0
SMALL
abcg2


@<TRIPOS>ATOM
      1 C1          19.2200    35.6630    97.0580 c3         1 MEA       0.156100
      2 N           18.3920    36.8460    97.1940 n7         1 MEA      -0.853400
      3 CA          17.7990    37.3110    95.9490 c3         1 MEA       0.025500
      4 C           16.7450    36.3390    95.3350 c          1 MEA       0.696000
      5 O           16.5260    36.4320    94.1110 o          1 MEA      -0.731500
      6 CB          18.8620    37.7480    94.9380 c3         1 MEA      -0.021100
      7 CG          19.7830    38.8110    95.4670 ca         1 MEA      -0.022300
      8 CD1         21.1190    38.5460    95.7550 ca         1 MEA      -0.111500
      9 CE1         21.9600    39.5360    96.2490 ca         1 MEA      -0.119000
     10 CZ          21.4760    40.8190    96.4640 ca         1 MEA      -0.141000
     11 CE2         20.1450    41.1020    96.1750 ca         1 MEA      -0.119000
     12 CD2         19.3130    40.1080    95.6810 ca         1 MEA      -0.111500
     13 OXT         16.1630    35.5830    96.1390 o          1 MEA      -0.731500
     14 HC1         19.4570    35.2800    98.0510 h1         1 MEA       0.012033
     15 HC2         18.7620    34.8430    96.4910 h1         1 MEA       0.012033
     16 HC3         20.1700    35.9050    96.5790 h1         1 MEA       0.012033
     17 H           17.6240    36.6100    97.8080 hn         1 MEA       0.412000
     18 HA          17.2310    38.2170    96.2120 h1         1 MEA       0.036700
     19 HB1         19.4470    36.8890    94.5970 hc         1 MEA       0.053700
     20 HB2         18.3430    38.1250    94.0570 hc         1 MEA       0.053700
     21 HD1         21.5120    37.5490    95.5890 ha         1 MEA       0.108500
     22 HE1         22.9950    39.3040    96.4660 ha         1 MEA       0.092500
     23 HZ          22.1280    41.5930    96.8480 ha         1 MEA       0.090000
     24 HE2         19.7580    42.1000    96.3310 ha         1 MEA       0.092500
     25 HD2         18.2790    40.3420    95.4530 ha         1 MEA       0.108500
@<TRIPOS>BOND
     1     1     2 1   
     2     1    14 1   
     3     1    15 1   
     4     1    16 1   
     5     2     3 1   
     6     2    17 1   
     7     3     4 1   
     8     3     6 1   
     9     3    18 1   
    10     4     5 1   
    11     4    13 1   
    12     6     7 1   
    13     6    19 1   
    14     6    20 1   
    15     7     8 ar  
    16     7    12 ar  
    17     8     9 ar  
    18     8    21 1   
    19     9    10 ar  
    20     9    22 1   
    21    10    11 ar  
    22    10    23 1   
    23    11    12 ar  
    24    11    24 1   
    25    12    25 1   
@<TRIPOS>SUBSTRUCTURE
     1 MEA         1 TEMP              0 ****  ****    0 ROOT
