@<TRIPOS>MOLECULE
MEA
   25    25     1     0     0
SMALL
No Charge or Current Charge


@<TRIPOS>ATOM
      1 C1          19.2180    35.4710    97.0440 c3         1 MEA       0.156100
      2 N           18.4550    36.7240    97.2140 n7         1 MEA      -0.853400
      3 CA          17.8040    37.2920    95.9740 c3         1 MEA       0.025500
      4 C           16.7140    36.3460    95.3170 c          1 MEA       0.696000
      5 O           16.9720    35.7550    94.2750 o          1 MEA      -0.731500
      6 CB          18.8620    37.7920    94.9440 c3         1 MEA      -0.021100
      7 CG          19.7850    38.8820    95.4850 ca         1 MEA      -0.022300
      8 CD1         21.1490    38.6150    95.7210 ca         1 MEA      -0.111500
      9 CE1         21.9980    39.6250    96.2050 ca         1 MEA      -0.119000
     10 CZ          21.4910    40.9110    96.4530 ca         1 MEA      -0.141000
     11 CE2         20.1340    41.1870    96.2170 ca         1 MEA      -0.119000
     12 CD2         19.2840    40.1760    95.7330 ca         1 MEA      -0.111500
     13 OXT         15.6320    36.2480    95.8820 o          1 MEA      -0.731500
     14 HC1         19.6210    35.1380    98.0100 h1         1 MEA       0.012033
     15 HC2         18.5770    34.6710    96.6500 h1         1 MEA       0.012033
     16 HC3         20.0630    35.6100    96.3570 h1         1 MEA       0.012033
     17 H           17.7070    36.5340    97.8940 hn         1 MEA       0.412000
     18 HA          17.2420    38.1850    96.2790 h1         1 MEA       0.036700
     19 HB1         19.4470    36.9430    94.5690 hc         1 MEA       0.053700
     20 HB2         18.3300    38.1880    94.0700 hc         1 MEA       0.053700
     21 HD1         21.5500    37.6220    95.5320 ha         1 MEA       0.108500
     22 HE1         23.0490    39.4110    96.3870 ha         1 MEA       0.092500
     23 HZ          22.1480    41.6930    96.8270 ha         1 MEA       0.090000
     24 HE2         19.7400    42.1830    96.4070 ha         1 MEA       0.092500
     25 HD2         18.2360    40.3990    95.5500 ha         1 MEA       0.108500
@<TRIPOS>BOND
     1     1     2 1   
     2     1    14 1   
     3     1    15 1   
     4     1    16 1   
     5     2     3 1   
     6     2    17 1   
     7     3     4 1   
     8     3     6 1   
     9     3    18 1   
    10     4     5 1   
    11     4    13 1   
    12     6     7 1   
    13     6    19 1   
    14     6    20 1   
    15     7     8 ar  
    16     7    12 ar  
    17     8     9 ar  
    18     8    21 1   
    19     9    10 ar  
    20     9    22 1   
    21    10    11 ar  
    22    10    23 1   
    23    11    12 ar  
    24    11    24 1   
    25    12    25 1   
@<TRIPOS>SUBSTRUCTURE
     1 MEA         1 TEMP              0 ****  ****    0 ROOT
