@<TRIPOS>MOLECULE
MEB
   12    11     1     0     0
SMALL
No Charge or Current Charge


@<TRIPOS>ATOM
      1 C1           0.0350    -0.1560     0.0120 c2         1 MEB      -0.114400
      2 C2           0.0130    -1.4970     0.0090 c2         1 MEB      -0.326000
      3 C3           1.3140     0.6550     0.1020 c3         1 MEB      -0.056900
      4 C4          -1.2150     0.6990    -0.0740 c3         1 MEB      -0.056900
      5 H2          -0.9220    -2.0550    -0.0570 ha         1 MEB       0.161000
      6 H21          0.9280    -2.0870     0.0710 ha         1 MEB       0.161000
      7 H3           1.4360     1.3000    -0.7770 hc         1 MEB       0.038367
      8 H31          1.3130     1.2970     0.9910 hc         1 MEB       0.038367
      9 H32          2.1990     0.0110     0.1630 hc         1 MEB       0.038367
     10 H1'1        -1.3150     1.3430     0.8080 hc         1 MEB       0.038367
     11 H1'2        -1.1920     1.3450    -0.9600 hc         1 MEB       0.038367
     12 H1'3        -2.1210     0.0850    -0.1380 hc         1 MEB       0.038367
@<TRIPOS>BOND
     1     1     2 2   
     2     1     3 1   
     3     1     4 1   
     4     2     5 1   
     5     2     6 1   
     6     3     7 1   
     7     3     8 1   
     8     3     9 1   
     9     4    10 1   
    10     4    11 1   
    11     4    12 1   
@<TRIPOS>SUBSTRUCTURE
     1 MEB         1 TEMP              0 ****  ****    0 ROOT
