@<TRIPOS>MOLECULE
MEB
   12    11     1     0     0
SMALL
bcc


@<TRIPOS>ATOM
      1 C1           0.0350    -0.1390     0.0120 c2         1 MEB      -0.114400
      2 C2           0.0130    -1.4710     0.0090 c2         1 MEB      -0.226000
      3 C3           1.3140     0.6390     0.1030 c3         1 MEB      -0.056900
      4 C4          -1.2150     0.6820    -0.0750 c3         1 MEB      -0.056900
      5 H2          -0.9160    -2.0240    -0.0600 ha         1 MEB       0.111000
      6 H21          0.9230    -2.0550     0.0740 ha         1 MEB       0.111000
      7 H3           1.4280     1.2990    -0.7600 hc         1 MEB       0.038367
      8 H31          1.3130     1.2820     0.9870 hc         1 MEB       0.038367
      9 H32          2.1880    -0.0090     0.1550 hc         1 MEB       0.038367
     10 H1'1        -1.3070     1.3420     0.7920 hc         1 MEB       0.038367
     11 H1'2        -1.1930     1.3300    -0.9560 hc         1 MEB       0.038367
     12 H1'3        -2.1110     0.0650    -0.1300 hc         1 MEB       0.038367
@<TRIPOS>BOND
     1     1     2 2   
     2     1     3 1   
     3     1     4 1   
     4     2     5 1   
     5     2     6 1   
     6     3     7 1   
     7     3     8 1   
     8     3     9 1   
     9     4    10 1   
    10     4    11 1   
    11     4    12 1   
@<TRIPOS>SUBSTRUCTURE
     1 MEB         1 TEMP              0 ****  ****    0 ROOT
