@<TRIPOS>MOLECULE
MEC
   16    15     1     0     0
SMALL
bcc


@<TRIPOS>ATOM
      1 C2          -0.1810     0.0270    -2.8540 c3         1 MEC       0.148700
      2 O1          -0.6580    -0.0340    -1.5150 os         1 MEC      -0.438900
      3 C3           0.2610     0.0070    -0.5430 c          1 MEC       0.751100
      4 O2           1.4560     0.0970    -0.7440 o          1 MEC      -0.594000
      5 N1          -0.3110    -0.0540     0.6690 ns         1 MEC      -0.573900
      6 C4           0.4680    -0.0950     1.8900 c3         1 MEC       0.121000
      7 C5          -0.4440     0.0100     3.0970 c3         1 MEC      -0.112100
      8 H23          0.5120    -0.7850    -3.0770 h1         1 MEC       0.046700
      9 H22         -1.0590    -0.0720    -3.4870 h1         1 MEC       0.046700
     10 H21          0.3060     0.9790    -3.0670 h1         1 MEC       0.046700
     11 H1          -1.3070    -0.1960     0.7310 hn         1 MEC       0.326500
     12 H42          1.1830     0.7300     1.8940 h1         1 MEC       0.050700
     13 H41          1.0500    -1.0200     1.9420 h1         1 MEC       0.050700
     14 H53          0.1440    -0.0240     4.0130 hc         1 MEC       0.043700
     15 H52         -1.0020     0.9470     3.0910 hc         1 MEC       0.043700
     16 H51         -1.1580    -0.8140     3.1300 hc         1 MEC       0.043700
@<TRIPOS>BOND
     1     1     2 1   
     2     1     8 1   
     3     1     9 1   
     4     1    10 1   
     5     2     3 1   
     6     3     4 2   
     7     3     5 1   
     8     5     6 1   
     9     5    11 1   
    10     6     7 1   
    11     6    12 1   
    12     6    13 1   
    13     7    14 1   
    14     7    15 1   
    15     7    16 1   
@<TRIPOS>SUBSTRUCTURE
     1 MEC         1 TEMP              0 ****  ****    0 ROOT
