@<TRIPOS>MOLECULE
MEC
   16    15     1     0     0
SMALL
No Charge or Current Charge


@<TRIPOS>ATOM
      1 C2          -0.2300     0.0090    -2.8920 c3         1 MEC       0.171900
      2 O1          -0.6410    -0.0010    -1.5130 os         1 MEC      -0.462100
      3 C3           0.3320    -0.0130    -0.5620 c          1 MEC       0.635100
      4 O2           1.5360    -0.0150    -0.7660 o          1 MEC      -0.545000
      5 N1          -0.2530    -0.0210     0.6710 ns         1 MEC      -0.506900
      6 C4           0.4820    -0.0340     1.9320 c3         1 MEC       0.121000
      7 C5          -0.4690    -0.0410     3.1400 c3         1 MEC      -0.112100
      8 H23          0.3660    -0.8810    -3.1300 h1         1 MEC       0.046700
      9 H22         -1.1060     0.0180    -3.5530 h1         1 MEC       0.046700
     10 H21          0.3720     0.9000    -3.1150 h1         1 MEC       0.046700
     11 H1          -1.2650    -0.0180     0.6840 hn         1 MEC       0.326500
     12 H42          1.1270     0.8530     1.9780 h1         1 MEC       0.050700
     13 H41          1.1200    -0.9280     1.9630 h1         1 MEC       0.050700
     14 H53          0.1050    -0.0500     4.0740 hc         1 MEC       0.043700
     15 H52         -1.1050     0.8530     3.1370 hc         1 MEC       0.043700
     16 H51         -1.1120    -0.9280     3.1220 hc         1 MEC       0.043700
@<TRIPOS>BOND
     1     1     2 1   
     2     1     8 1   
     3     1     9 1   
     4     1    10 1   
     5     2     3 1   
     6     3     4 2   
     7     3     5 1   
     8     5     6 1   
     9     5    11 1   
    10     6     7 1   
    11     6    12 1   
    12     6    13 1   
    13     7    14 1   
    14     7    15 1   
    15     7    16 1   
@<TRIPOS>SUBSTRUCTURE
     1 MEC         1 TEMP              0 ****  ****    0 ROOT
