@<TRIPOS>MOLECULE
MED
   19    18     1     0     0
SMALL
No Charge or Current Charge


@<TRIPOS>ATOM
      1 N           20.8620    27.5430    16.3070 n8         1 MED      -0.883800
      2 CA          19.6170    28.3650    16.0590 c3         1 MED       0.018500
      3 C           18.5740    28.5140    17.2560 c          1 MED       0.929600
      4 O           18.9950    28.6850    18.3970 o          1 MED      -0.835300
      5 CB          19.9980    29.7440    15.4540 c3         1 MED      -0.091400
      6 CG          20.7810    30.6790    16.4070 c3         1 MED       0.046700
      7 SD          21.2270    32.2670    15.5630 ss         1 MED      -0.429200
      8 CE          19.5940    33.1370    15.5940 c3         1 MED       0.012000
      9 OXT         17.3820    28.3380    17.0190 o          1 MED      -0.835300
     10 H           21.5110    27.6620    15.5230 hn         1 MED       0.323800
     11 H2          21.3570    27.9240    17.1200 hn         1 MED       0.323800
     12 HA          19.0690    27.8340    15.2690 h1         1 MED       0.047700
     13 HB2         20.5930    29.5840    14.5460 hc         1 MED       0.033200
     14 HB3         19.0780    30.2460    15.1350 hc         1 MED       0.033200
     15 HG2         20.1850    30.9020    17.3020 h1         1 MED       0.074700
     16 HG3         21.7080    30.1860    16.7280 h1         1 MED       0.074700
     17 HE1         19.2340    33.2190    16.6280 h1         1 MED       0.052367
     18 HE2         19.7060    34.1450    15.1740 h1         1 MED       0.052367
     19 HE3         18.8590    32.5830    14.9980 h1         1 MED       0.052367
@<TRIPOS>BOND
     1     1     2 1   
     2     1    10 1   
     3     1    11 1   
     4     2     3 1   
     5     2     5 1   
     6     2    12 1   
     7     3     4 1   
     8     3     9 1   
     9     5     6 1   
    10     5    13 1   
    11     5    14 1   
    12     6     7 1   
    13     6    15 1   
    14     6    16 1   
    15     7     8 1   
    16     8    17 1   
    17     8    18 1   
    18     8    19 1   
@<TRIPOS>SUBSTRUCTURE
     1 MED         1 TEMP              0 ****  ****    0 ROOT
