@<TRIPOS>MOLECULE
MED
   19    18     1     0     0
SMALL
bcc


@<TRIPOS>ATOM
      1 N           20.8430    27.5910    16.2830 n8         1 MED      -0.883800
      2 CA          19.6420    28.3700    16.0290 c3         1 MED       0.018500
      3 C           18.7470    28.4650    17.2900 c          1 MED       0.929600
      4 O           19.2640    28.1730    18.3870 o          1 MED      -0.835300
      5 CB          19.9130    29.7830    15.4780 c3         1 MED      -0.091400
      6 CG          20.6810    30.6720    16.4420 c3         1 MED       0.046700
      7 SD          21.2030    32.2590    15.7310 ss         1 MED      -0.429200
      8 CE          19.6070    33.0750    15.5030 c3         1 MED       0.012000
      9 OXT         17.5810    28.8610    17.0930 o          1 MED      -0.835300
     10 H           21.5480    27.7910    15.5830 hn         1 MED       0.323800
     11 H2          21.2290    27.8610    17.1780 hn         1 MED       0.323800
     12 HA          19.0580    27.8530    15.2580 h1         1 MED       0.047700
     13 HB2         20.4820    29.7000    14.5470 hc         1 MED       0.033200
     14 HB3         18.9600    30.2480    15.2180 hc         1 MED       0.033200
     15 HG2         20.1060    30.8750    17.3480 h1         1 MED       0.074700
     16 HG3         21.6100    30.1880    16.7530 h1         1 MED       0.074700
     17 HE1         19.0540    33.1170    16.4410 h1         1 MED       0.052367
     18 HE2         19.8050    34.0930    15.1720 h1         1 MED       0.052367
     19 HE3         18.9970    32.5810    14.7480 h1         1 MED       0.052367
@<TRIPOS>BOND
     1     1     2 1   
     2     1    10 1   
     3     1    11 1   
     4     2     3 1   
     5     2     5 1   
     6     2    12 1   
     7     3     4 1   
     8     3     9 1   
     9     5     6 1   
    10     5    13 1   
    11     5    14 1   
    12     6     7 1   
    13     6    15 1   
    14     6    16 1   
    15     7     8 1   
    16     8    17 1   
    17     8    18 1   
    18     8    19 1   
@<TRIPOS>SUBSTRUCTURE
     1 MED         1 TEMP              0 ****  ****    0 ROOT
