@<TRIPOS>MOLECULE
MEE
    6     5     1     0     0
SMALL
abcg2


@<TRIPOS>ATOM
      1 C            0.2410     0.7960     0.6520 c3         1 MEE       0.059900
      2 S           -0.4300     2.3530     0.0030 sh         1 MEE      -0.449800
      3 H1           1.3260     0.8300     0.7200 h1         1 MEE       0.060367
      4 H2          -0.0620    -0.0510     0.0410 h1         1 MEE       0.060367
      5 H3          -0.1670     0.6680     1.6520 h1         1 MEE       0.060367
      6 HS           0.1730     2.3220    -1.1910 hs         1 MEE       0.208800
@<TRIPOS>BOND
     1     1     2 1   
     2     1     3 1   
     3     1     4 1   
     4     1     5 1   
     5     2     6 1   
@<TRIPOS>SUBSTRUCTURE
     1 MEE         1 TEMP              0 ****  ****    0 ROOT
