@<TRIPOS>MOLECULE
MEE
    6     5     1     0     0
SMALL
No Charge or Current Charge


@<TRIPOS>ATOM
      1 C            0.2330     0.7940     0.6720 c3         1 MEE       0.059900
      2 S           -0.4420     2.3810    -0.0090 sh         1 MEE      -0.449800
      3 H1           1.3280     0.8450     0.7110 h1         1 MEE       0.060367
      4 H2          -0.0690    -0.0420     0.0280 h1         1 MEE       0.060367
      5 H3          -0.1590     0.6310     1.6840 h1         1 MEE       0.060367
      6 HS           0.1900     2.3100    -1.2080 hs         1 MEE       0.208800
@<TRIPOS>BOND
     1     1     2 1   
     2     1     3 1   
     3     1     4 1   
     4     1     5 1   
     5     2     6 1   
@<TRIPOS>SUBSTRUCTURE
     1 MEE         1 TEMP              0 ****  ****    0 ROOT
