@<TRIPOS>MOLECULE
MEF
   54    57     1     0     0
SMALL
abcg2


@<TRIPOS>ATOM
      1 OE2         -7.5740     3.1240    -1.0670 o          1 MEF      -0.762000
      2 CD          -6.7790     3.1130    -0.1060 c          1 MEF       0.712000
      3 OE1         -6.4670     4.0930     0.6030 o          1 MEF      -0.762000
      4 CG          -6.1320     1.7700     0.2770 c3         1 MEF      -0.201400
      5 CB          -6.2960     0.6480    -0.7370 c3         1 MEF      -0.054400
      6 CA          -5.7390    -0.6930    -0.2570 c3         1 MEF      -0.050300
      7 CT          -6.0920    -1.8210    -1.2590 c          1 MEF       0.717000
      8 O1          -7.3010    -2.1280    -1.3020 o          1 MEF      -0.744500
      9 O2          -5.1710    -2.2980    -1.9440 o          1 MEF      -0.744500
     10 N           -4.3170    -0.5770    -0.0270 ns         1 MEF      -0.420900
     11 C           -3.6370    -1.4650     0.7170 c          1 MEF       0.601700
     12 O           -4.1970    -2.3480     1.3630 o          1 MEF      -0.646100
     13 N10          2.0210    -1.0590     0.9410 nh         1 MEF      -0.860400
     14 CM           2.7680     0.1260     0.5900 c5         1 MEF       0.483000
     15 N5           4.1120    -0.1980     1.0330 nh         1 MEF      -0.575400
     16 C9           2.8880    -2.1440     1.3450 c5         1 MEF       0.245800
     17 C6           4.2640    -1.6400     0.9410 c5         1 MEF       0.152500
     18 C7           4.6520    -2.0710    -0.4750 c6         1 MEF       0.194800
     19 N8           5.8140    -1.3250    -0.8830 nu         1 MEF      -0.818200
     20 C8A          6.0090    -0.0520    -0.4940 cc         1 MEF       0.430600
     21 C4A          5.1620     0.5330     0.4390 cd         1 MEF      -0.219200
     22 N1           7.0850     0.5740    -1.0280 nc         1 MEF      -0.765300
     23 C2           7.2920     1.8120    -0.6700 cd         1 MEF       0.735800
     24 NA2          8.3090     2.5030    -1.2110 nv         1 MEF      -1.047200
     25 N3           6.4920     2.4610     0.2070 ns         1 MEF      -0.445400
     26 C4           5.3960     1.8690     0.8420 c          1 MEF       0.601200
     27 O4           4.7400     2.5250     1.6480 o          1 MEF      -0.544000
     28 C11         -2.1580    -1.3120     0.7560 ca         1 MEF      -0.152600
     29 C12         -1.3860    -2.3680     1.2440 ca         1 MEF      -0.033000
     30 C13         -0.0100    -2.2980     1.3070 ca         1 MEF      -0.211500
     31 C16         -1.4820    -0.1580     0.3570 ca         1 MEF      -0.033000
     32 C15         -0.1060    -0.0630     0.4170 ca         1 MEF      -0.211500
     33 C14          0.6700    -1.1380     0.8890 ca         1 MEF       0.334000
     34 HG          -5.0730     1.9430     0.4910 hc         1 MEF       0.010700
     35 HGA         -6.5660     1.4510     1.2340 hc         1 MEF       0.010700
     36 HB          -7.3520     0.5080    -0.9610 hc         1 MEF       0.049200
     37 HBA         -5.8170     0.9220    -1.6840 hc         1 MEF       0.049200
     38 HA          -6.2140    -0.9320     0.6990 h1         1 MEF       0.058700
     39 HN          -3.8030    -0.0360    -0.7030 hn         1 MEF       0.294500
     40 HM           2.7080     0.3280    -0.4920 h2         1 MEF       0.049200
     41 HMA          2.3970     1.0130     1.1120 h2         1 MEF       0.049200
     42 H9           2.8330    -2.3300     2.4220 h1         1 MEF       0.045200
     43 H9A          2.6350    -3.0770     0.8340 h1         1 MEF       0.045200
     44 H6           5.0350    -1.9760     1.6380 h1         1 MEF       0.073700
     45 H7           4.8880    -3.1350    -0.4950 h1         1 MEF       0.054200
     46 H7A          3.8090    -1.9140    -1.1600 h1         1 MEF       0.054200
     47 HN8          6.4420    -1.7100    -1.5680 hn         1 MEF       0.500000
     48 HNA2         8.9970     1.9820    -1.7270 hn         1 MEF       0.491000
     49 HNAA         8.6310     3.3530    -0.7800 hn         1 MEF       0.491000
     50 HN3          6.6890     3.4230     0.4500 hn         1 MEF       0.320500
     51 H12         -1.8750    -3.2720     1.5810 ha         1 MEF       0.128500
     52 H13          0.5370    -3.1470     1.6940 ha         1 MEF       0.096000
     53 H16         -2.0240     0.7110     0.0020 ha         1 MEF       0.128500
     54 H15          0.3640     0.8550     0.0900 ha         1 MEF       0.096000
@<TRIPOS>BOND
     1     1     2 1   
     2     2     3 1   
     3     2     4 1   
     4     4     5 1   
     5     4    34 1   
     6     4    35 1   
     7     5     6 1   
     8     5    36 1   
     9     5    37 1   
    10     6     7 1   
    11     6    10 1   
    12     6    38 1   
    13     7     8 1   
    14     7     9 1   
    15    10    11 1   
    16    10    39 1   
    17    11    12 2   
    18    11    28 1   
    19    13    14 1   
    20    13    16 1   
    21    13    33 1   
    22    14    15 1   
    23    14    40 1   
    24    14    41 1   
    25    15    17 1   
    26    15    21 1   
    27    16    17 1   
    28    16    42 1   
    29    16    43 1   
    30    17    18 1   
    31    17    44 1   
    32    18    19 1   
    33    18    45 1   
    34    18    46 1   
    35    19    20 1   
    36    19    47 1   
    37    20    21 2   
    38    20    22 1   
    39    21    26 1   
    40    22    23 2   
    41    23    24 1   
    42    23    25 1   
    43    24    48 1   
    44    24    49 1   
    45    25    26 1   
    46    25    50 1   
    47    26    27 2   
    48    28    29 ar  
    49    28    31 ar  
    50    29    30 ar  
    51    29    51 1   
    52    30    33 ar  
    53    30    52 1   
    54    31    32 ar  
    55    31    53 1   
    56    32    33 ar  
    57    32    54 1   
@<TRIPOS>SUBSTRUCTURE
     1 MEF         1 TEMP              0 ****  ****    0 ROOT
