@<TRIPOS>MOLECULE
MEF
   54    57     1     0     0
SMALL
No Charge or Current Charge


@<TRIPOS>ATOM
      1 OE2         -8.6050     0.7460     2.5950 o          1 MEF      -0.762000
      2 CD          -7.4320     1.0510     2.4430 c          1 MEF       0.712000
      3 OE1         -6.9240     2.0420     2.9460 o          1 MEF      -0.762000
      4 CG          -6.5640     0.1780     1.5170 c3         1 MEF      -0.201400
      5 CB          -6.6580     0.6910     0.0560 c3         1 MEF      -0.054400
      6 CA          -5.9120    -0.1810    -0.9890 c3         1 MEF      -0.050300
      7 CT          -6.1860     0.3200    -2.4400 c          1 MEF       0.717000
      8 O1          -6.8870    -0.3700    -3.1680 o          1 MEF      -0.744500
      9 O2          -5.6180     1.3340    -2.8250 o          1 MEF      -0.744500
     10 N           -4.4500    -0.2320    -0.7370 ns         1 MEF      -0.420900
     11 C           -3.7790    -1.2420    -0.0750 c          1 MEF       0.601700
     12 O           -4.3610    -2.2370     0.3380 o          1 MEF      -0.646100
     13 N10          1.9260    -0.6350     0.6560 nh         1 MEF      -0.860400
     14 CM           2.7460     0.3260    -0.1250 c5         1 MEF       0.483000
     15 N5           4.1020     0.0290     0.3840 nh         1 MEF      -0.575400
     16 C9           2.7670    -1.5930     1.4330 c5         1 MEF       0.245800
     17 C6           4.1040    -0.8230     1.5990 c5         1 MEF       0.152500
     18 C7           5.3730    -1.7240     1.7520 c6         1 MEF       0.194800
     19 N8           6.5830    -0.9790     1.3210 nu         1 MEF      -0.818200
     20 C8A          6.5140    -0.0880     0.2980 cc         1 MEF       0.430600
     21 C4A          5.3310     0.4360    -0.2190 cd         1 MEF      -0.219200
     22 N1           7.7570     0.1990    -0.1690 nc         1 MEF      -0.765300
     23 C2           7.7600     1.0340    -1.1640 cd         1 MEF       0.735800
     24 NA2          8.9580     1.3360    -1.6280 nv         1 MEF      -1.047200
     25 N3           6.7100     1.6090    -1.7520 ns         1 MEF      -0.445400
     26 C4           5.4360     1.3830    -1.3660 c          1 MEF       0.601200
     27 O4           4.4960     1.9240    -1.9290 o          1 MEF      -0.544000
     28 C11         -2.2840    -1.0570     0.1030 ca         1 MEF      -0.152600
     29 C12         -1.5360    -2.0590     0.7570 ca         1 MEF      -0.033000
     30 C13         -0.1490    -1.9190     0.9390 ca         1 MEF      -0.211500
     31 C16         -1.6030     0.0910    -0.3630 ca         1 MEF      -0.033000
     32 C15         -0.2150     0.2230    -0.1770 ca         1 MEF      -0.211500
     33 C14          0.5310    -0.7770     0.4740 ca         1 MEF       0.334000
     34 HG          -5.5080     0.2550     1.8010 hc         1 MEF       0.010700
     35 HGA         -6.9420    -0.8520     1.4970 hc         1 MEF       0.010700
     36 HB          -7.7170     0.7400    -0.2300 hc         1 MEF       0.049200
     37 HBA         -6.2760     1.7190     0.0090 hc         1 MEF       0.049200
     38 HA          -6.3110    -1.2020    -0.9300 h1         1 MEF       0.058700
     39 HN          -3.8930     0.5410    -1.0770 hn         1 MEF       0.294500
     40 HM           2.6730     0.1220    -1.2020 h2         1 MEF       0.049200
     41 HMA          2.4670     1.3650     0.0960 h2         1 MEF       0.049200
     42 H9           2.3350    -1.8400     2.4130 h1         1 MEF       0.045200
     43 H9A          2.9120    -2.5260     0.8700 h1         1 MEF       0.045200
     44 H6           4.0500    -0.1760     2.4850 h1         1 MEF       0.073700
     45 H7           5.4640    -2.0650     2.7950 h1         1 MEF       0.054200
     46 H7A          5.2560    -2.6200     1.1240 h1         1 MEF       0.054200
     47 HN8          7.5060    -1.3950     1.4210 hn         1 MEF       0.500000
     48 HNA2         9.7050     1.0200    -1.0240 hn         1 MEF       0.491000
     49 HNAA         9.0820     2.2600    -2.0220 hn         1 MEF       0.491000
     50 HN3          6.8410     2.2260    -2.5340 hn         1 MEF       0.320500
     51 H12         -2.0270    -2.9560     1.1280 ha         1 MEF       0.128500
     52 H13          0.3870    -2.7170     1.4420 ha         1 MEF       0.096000
     53 H16         -2.1300     0.8960    -0.8700 ha         1 MEF       0.128500
     54 H15          0.2690     1.1230    -0.5430 ha         1 MEF       0.096000
@<TRIPOS>BOND
     1     1     2 1   
     2     2     3 1   
     3     2     4 1   
     4     4     5 1   
     5     4    34 1   
     6     4    35 1   
     7     5     6 1   
     8     5    36 1   
     9     5    37 1   
    10     6     7 1   
    11     6    10 1   
    12     6    38 1   
    13     7     8 1   
    14     7     9 1   
    15    10    11 1   
    16    10    39 1   
    17    11    12 2   
    18    11    28 1   
    19    13    14 1   
    20    13    16 1   
    21    13    33 1   
    22    14    15 1   
    23    14    40 1   
    24    14    41 1   
    25    15    17 1   
    26    15    21 1   
    27    16    17 1   
    28    16    42 1   
    29    16    43 1   
    30    17    18 1   
    31    17    44 1   
    32    18    19 1   
    33    18    45 1   
    34    18    46 1   
    35    19    20 1   
    36    19    47 1   
    37    20    21 2   
    38    20    22 1   
    39    21    26 1   
    40    22    23 2   
    41    23    24 1   
    42    23    25 1   
    43    24    48 1   
    44    24    49 1   
    45    25    26 1   
    46    25    50 1   
    47    26    27 2   
    48    28    29 ar  
    49    28    31 ar  
    50    29    30 ar  
    51    29    51 1   
    52    30    33 ar  
    53    30    52 1   
    54    31    32 ar  
    55    31    53 1   
    56    32    33 ar  
    57    32    54 1   
@<TRIPOS>SUBSTRUCTURE
     1 MEF         1 TEMP              0 ****  ****    0 ROOT
