@<TRIPOS>MOLECULE
MEG
   20    19     1     0     0
SMALL
bcc


@<TRIPOS>ATOM
      1 N           -4.6670     3.2660     1.0960 n8         1 MEG      -0.877800
      2 CA          -4.5610     2.7210     2.4500 c3         1 MEG       0.020500
      3 CB          -5.9520     2.7330     3.1110 c3         1 MEG      -0.018700
      4 CG          -6.4640     4.1610     3.2770 c3         1 MEG      -0.193400
      5 CD          -7.9480     4.3220     3.6600 c          1 MEG       0.923600
      6 OE1         -8.7500     3.4580     3.2430 o          1 MEG      -0.874800
      7 OE2         -8.2410     5.3380     4.3250 o          1 MEG      -0.874800
      8 C           -3.9420     1.3040     2.4700 c          1 MEG       0.899600
      9 O           -4.4290     0.4830     1.6610 o          1 MEG      -0.864300
     10 C1          -5.9520     2.0170     4.4590 c3         1 MEG      -0.065100
     11 H           -3.7360     3.3910     0.7170 hn         1 MEG       0.310800
     12 H2          -5.0890     2.5460     0.5190 hn         1 MEG       0.310800
     13 HA          -3.9130     3.3920     3.0270 h1         1 MEG       0.027700
     14 HB          -6.6340     2.1970     2.4410 hc         1 MEG       0.061700
     15 HG2         -5.8410     4.6810     4.0140 hc         1 MEG       0.016700
     16 HG3         -6.3140     4.7000     2.3350 hc         1 MEG       0.016700
     17 H11         -6.9340     2.0810     4.9290 hc         1 MEG       0.015033
     18 H12         -5.7090     0.9580     4.3690 hc         1 MEG       0.015033
     19 H13         -5.2270     2.4660     5.1420 hc         1 MEG       0.015033
     20 OXT         -3.0170     1.0870     3.2790 o          1 MEG      -0.864300
@<TRIPOS>BOND
     1     1     2 1   
     2     1    11 1   
     3     1    12 1   
     4     2     3 1   
     5     2     8 1   
     6     2    13 1   
     7     3     4 1   
     8     3    10 1   
     9     3    14 1   
    10     4     5 1   
    11     4    15 1   
    12     4    16 1   
    13     5     6 1   
    14     5     7 1   
    15     8     9 1   
    16     8    20 1   
    17    10    17 1   
    18    10    18 1   
    19    10    19 1   
@<TRIPOS>SUBSTRUCTURE
     1 MEG         1 TEMP              0 ****  ****    0 ROOT
