@<TRIPOS>MOLECULE
MEG
   20    19     1     0     0
SMALL
No Charge or Current Charge


@<TRIPOS>ATOM
      1 N           -4.5680     3.2670     1.0330 n8         1 MEG      -0.877800
      2 CA          -4.5520     2.6860     2.4320 c3         1 MEG       0.020500
      3 CB          -5.9700     2.7670     3.1080 c3         1 MEG      -0.018700
      4 CG          -6.5300     4.2310     3.1530 c3         1 MEG      -0.193400
      5 CD          -7.9720     4.2980     3.7000 c          1 MEG       0.923600
      6 OE1         -8.9020     4.0960     2.9280 o          1 MEG      -0.874800
      7 OE2         -8.1450     4.5500     4.8860 o          1 MEG      -0.874800
      8 C           -3.9110     1.2300     2.5510 c          1 MEG       0.899600
      9 O           -4.3970     0.3130     1.8950 o          1 MEG      -0.864300
     10 C1          -5.9670     2.1190     4.5210 c3         1 MEG      -0.065100
     11 H           -3.6120     3.2760     0.6630 hn         1 MEG       0.310800
     12 H2          -5.0710     2.6210     0.4170 hn         1 MEG       0.310800
     13 HA          -3.8960     3.3450     3.0170 h1         1 MEG       0.027700
     14 HB          -6.6560     2.1720     2.4910 hc         1 MEG       0.061700
     15 HG2         -5.8500     4.8080     3.7920 hc         1 MEG       0.016700
     16 HG3         -6.5460     4.5780     2.1140 hc         1 MEG       0.016700
     17 H11         -6.9700     2.1170     4.9610 hc         1 MEG       0.015033
     18 H12         -5.6450     1.0720     4.4850 hc         1 MEG       0.015033
     19 H13         -5.2950     2.6610     5.1980 hc         1 MEG       0.015033
     20 OXT         -2.8640     1.0960     3.1770 o          1 MEG      -0.864300
@<TRIPOS>BOND
     1     1     2 1   
     2     1    11 1   
     3     1    12 1   
     4     2     3 1   
     5     2     8 1   
     6     2    13 1   
     7     3     4 1   
     8     3    10 1   
     9     3    14 1   
    10     4     5 1   
    11     4    15 1   
    12     4    16 1   
    13     5     6 1   
    14     5     7 1   
    15     8     9 1   
    16     8    20 1   
    17    10    17 1   
    18    10    18 1   
    19    10    19 1   
@<TRIPOS>SUBSTRUCTURE
     1 MEG         1 TEMP              0 ****  ****    0 ROOT
