@<TRIPOS>MOLECULE
MEJ
   43    45     1     0     0
SMALL
No Charge or Current Charge


@<TRIPOS>ATOM
      1 CAI          4.9020     1.1410    -0.8870 ca         1 MEJ      -0.099500
      2 CAE          5.6310     2.2500    -0.4240 ca         1 MEJ      -0.110000
      3 CAD          6.2170     2.2250     0.8520 ca         1 MEJ      -0.103000
      4 CAF          6.0720     1.0890     1.6660 ca         1 MEJ      -0.110000
      5 CAJ          5.3430    -0.0200     1.2040 ca         1 MEJ      -0.099500
      6 CAS          4.7550    -0.0060    -0.0780 ca         1 MEJ      -0.103300
      7 CAX          3.9610    -1.2150    -0.5660 c3         1 MEJ       0.162000
      8 CAA          4.5180    -1.7910    -1.8850 c3         1 MEJ      -0.105100
      9 NAP          2.5480    -0.8640    -0.6960 ns         1 MEJ      -0.502900
     10 CAR          1.5070    -1.7630    -0.6710 c          1 MEJ       0.595100
     11 OAB          1.6800    -2.9660    -0.5390 o          1 MEJ      -0.615100
     12 CAM          0.1150    -1.1490    -0.8490 c3         1 MEJ      -0.146400
     13 CAN         -0.6820    -1.1420     0.4840 c3         1 MEJ      -0.110700
     14 CAT         -2.0520    -0.5290     0.3630 cc         1 MEJ       0.506900
     15 NAO         -2.2620     0.7480     0.6800 nd         1 MEJ      -0.639100
     16 CAV         -3.5880     1.1790     0.5020 ca         1 MEJ       0.189400
     17 CAK         -3.8850     2.5180     0.8190 ca         1 MEJ      -0.107000
     18 CAG         -5.1860     3.0270     0.6690 ca         1 MEJ      -0.074000
     19 CAH         -6.2110     2.1940     0.1950 ca         1 MEJ      -0.134000
     20 CAL         -5.9330     0.8560    -0.1270 ca         1 MEJ      -0.039000
     21 CAW         -4.6240     0.3500     0.0260 ca         1 MEJ      -0.203600
     22 CAU         -4.3050    -1.0590    -0.3080 c          1 MEJ       0.578600
     23 OAC         -5.1190    -1.8670    -0.7280 o          1 MEJ      -0.536000
     24 NAQ         -3.0100    -1.3880    -0.1070 ns         1 MEJ      -0.431400
     25 H1           4.4500     1.1780    -1.8760 ha         1 MEJ       0.114000
     26 H2           5.7400     3.1300    -1.0550 ha         1 MEJ       0.115000
     27 H3           6.7810     3.0840     1.2100 ha         1 MEJ       0.115000
     28 H4           6.5240     1.0690     2.6550 ha         1 MEJ       0.115000
     29 H5           5.2370    -0.8930     1.8450 ha         1 MEJ       0.114000
     30 H6           4.0400    -2.0040     0.1950 h1         1 MEJ       0.076700
     31 H7           3.9920    -2.7120    -2.1600 hc         1 MEJ       0.045700
     32 H8           4.4070    -1.0760    -2.7090 hc         1 MEJ       0.045700
     33 H9           5.5830    -2.0290    -1.7760 hc         1 MEJ       0.045700
     34 H10          2.3080     0.1130    -0.7990 hn         1 MEJ       0.316500
     35 H11          0.2040    -0.1160    -1.2060 hc         1 MEJ       0.075200
     36 H12         -0.4350    -1.7470    -1.5850 hc         1 MEJ       0.075200
     37 H13         -0.7670    -2.1680     0.8660 hc         1 MEJ       0.076700
     38 H14         -0.1070    -0.5900     1.2380 hc         1 MEJ       0.076700
     39 H15         -3.0960     3.1690     1.1870 ha         1 MEJ       0.130000
     40 H16         -5.3980     4.0640     0.9190 ha         1 MEJ       0.117000
     41 H17         -7.2200     2.5840     0.0770 ha         1 MEJ       0.120000
     42 H18         -6.7340     0.2160    -0.4940 ha         1 MEJ       0.136000
     43 H19         -2.7540    -2.3390    -0.3250 hn         1 MEJ       0.331500
@<TRIPOS>BOND
     1     1     2 ar  
     2     1     6 ar  
     3     1    25 1   
     4     2     3 ar  
     5     2    26 1   
     6     3     4 ar  
     7     3    27 1   
     8     4     5 ar  
     9     4    28 1   
    10     5     6 ar  
    11     5    29 1   
    12     6     7 1   
    13     7     8 1   
    14     7     9 1   
    15     7    30 1   
    16     8    31 1   
    17     8    32 1   
    18     8    33 1   
    19     9    10 1   
    20     9    34 1   
    21    10    11 2   
    22    10    12 1   
    23    12    13 1   
    24    12    35 1   
    25    12    36 1   
    26    13    14 1   
    27    13    37 1   
    28    13    38 1   
    29    14    15 2   
    30    14    24 1   
    31    15    16 1   
    32    16    17 ar  
    33    16    21 ar  
    34    17    18 ar  
    35    17    39 1   
    36    18    19 ar  
    37    18    40 1   
    38    19    20 ar  
    39    19    41 1   
    40    20    21 ar  
    41    20    42 1   
    42    21    22 1   
    43    22    23 2   
    44    22    24 1   
    45    24    43 1   
@<TRIPOS>SUBSTRUCTURE
     1 MEJ         1 TEMP              0 ****  ****    0 ROOT
