@<TRIPOS>MOLECULE
MEJ
   43    45     1     0     0
SMALL
bcc


@<TRIPOS>ATOM
      1 CAI          5.0770     1.2580    -0.4870 ca         1 MEJ      -0.117500
      2 CAE          5.9380     2.1100     0.1910 ca         1 MEJ      -0.128000
      3 CAD          6.6210     1.6630     1.3160 ca         1 MEJ      -0.121000
      4 CAF          6.4320     0.3620     1.7600 ca         1 MEJ      -0.128000
      5 CAJ          5.5640    -0.4860     1.0830 ca         1 MEJ      -0.117500
      6 CAS          4.8790    -0.0490    -0.0460 ca         1 MEJ      -0.103300
      7 CAX          3.9360    -0.9800    -0.7730 c3         1 MEJ       0.162000
      8 CAA          4.3320    -1.1840    -2.2330 c3         1 MEJ      -0.105100
      9 NAP          2.5750    -0.4770    -0.6460 ns         1 MEJ      -0.569900
     10 CAR          1.4900    -1.2640    -0.6880 c          1 MEJ       0.662100
     11 OAB          1.5550    -2.4820    -0.8040 o          1 MEJ      -0.615100
     12 CAM          0.1660    -0.5330    -0.5960 c3         1 MEJ      -0.146400
     13 CAN         -0.8540    -1.3370     0.1900 c3         1 MEJ      -0.110700
     14 CAT         -2.2030    -0.6940     0.2540 cc         1 MEJ       0.506900
     15 NAO         -2.4610     0.4000    -0.3650 nd         1 MEJ      -0.639100
     16 CAV         -3.7320     0.9170    -0.2600 ca         1 MEJ       0.189400
     17 CAK         -4.0300     2.1100    -0.9330 ca         1 MEJ      -0.125000
     18 CAG         -5.2930     2.6560    -0.8480 ca         1 MEJ      -0.092000
     19 CAH         -6.2930     2.0330    -0.0930 ca         1 MEJ      -0.152000
     20 CAL         -6.0160     0.8600     0.5740 ca         1 MEJ      -0.057000
     21 CAW         -4.7390     0.2960     0.4940 ca         1 MEJ      -0.203600
     22 CAU         -4.4300    -0.9460     1.1900 c          1 MEJ       0.721100
     23 OAC         -5.2070    -1.5890     1.8740 o          1 MEJ      -0.611500
     24 NAQ         -3.1300    -1.3570     1.0060 ns         1 MEJ      -0.498400
     25 H1           4.5590     1.6220    -1.3670 ha         1 MEJ       0.132000
     26 H2           6.0790     3.1240    -0.1610 ha         1 MEJ       0.133000
     27 H3           7.2970     2.3250     1.8410 ha         1 MEJ       0.133000
     28 H4           6.9590     0.0040     2.6350 ha         1 MEJ       0.133000
     29 H5           5.4200    -1.5000     1.4370 ha         1 MEJ       0.132000
     30 H6           3.9670    -1.9500    -0.2720 h1         1 MEJ       0.076700
     31 H7           3.6680    -1.9050    -2.7100 hc         1 MEJ       0.045700
     32 H8           4.2830    -0.2520    -2.7970 hc         1 MEJ       0.045700
     33 H9           5.3500    -1.5680    -2.3000 hc         1 MEJ       0.045700
     34 H10          2.4450     0.5190    -0.5640 hn         1 MEJ       0.316500
     35 H11          0.2980     0.4550    -0.1540 hc         1 MEJ       0.075200
     36 H12         -0.1940    -0.3670    -1.6150 hc         1 MEJ       0.075200
     37 H13         -0.9730    -2.3320    -0.2470 hc         1 MEJ       0.076700
     38 H14         -0.5010    -1.5010     1.2130 hc         1 MEJ       0.076700
     39 H15         -3.2550     2.5880    -1.5160 ha         1 MEJ       0.148000
     40 H16         -5.5120     3.5790    -1.3700 ha         1 MEJ       0.135000
     41 H17         -7.2800     2.4720    -0.0350 ha         1 MEJ       0.138000
     42 H18         -6.7810     0.3710     1.1620 ha         1 MEJ       0.154000
     43 H19         -2.8560    -2.2190     1.4620 hn         1 MEJ       0.331500
@<TRIPOS>BOND
     1     1     2 ar  
     2     1     6 ar  
     3     1    25 1   
     4     2     3 ar  
     5     2    26 1   
     6     3     4 ar  
     7     3    27 1   
     8     4     5 ar  
     9     4    28 1   
    10     5     6 ar  
    11     5    29 1   
    12     6     7 1   
    13     7     8 1   
    14     7     9 1   
    15     7    30 1   
    16     8    31 1   
    17     8    32 1   
    18     8    33 1   
    19     9    10 1   
    20     9    34 1   
    21    10    11 2   
    22    10    12 1   
    23    12    13 1   
    24    12    35 1   
    25    12    36 1   
    26    13    14 1   
    27    13    37 1   
    28    13    38 1   
    29    14    15 2   
    30    14    24 1   
    31    15    16 1   
    32    16    17 ar  
    33    16    21 ar  
    34    17    18 ar  
    35    17    39 1   
    36    18    19 ar  
    37    18    40 1   
    38    19    20 ar  
    39    19    41 1   
    40    20    21 ar  
    41    20    42 1   
    42    21    22 1   
    43    22    23 2   
    44    22    24 1   
    45    24    43 1   
@<TRIPOS>SUBSTRUCTURE
     1 MEJ         1 TEMP              0 ****  ****    0 ROOT
