@<TRIPOS>MOLECULE
MEK
   47    48     1     0     0
SMALL
abcg2


@<TRIPOS>ATOM
      1 N1          -1.4930     1.6840     0.0780 ns         1 MEK      -0.386400
      2 C4           3.1450     0.8670     0.3800 ca         1 MEK       0.192000
      3 C5           3.1200     0.3270     1.6600 ca         1 MEK      -0.089000
      4 C6           2.0840    -0.5170     1.9920 ca         1 MEK       0.137000
      5 C7          -1.9350    -0.5710     0.6700 ca         1 MEK      -0.199600
      6 C8          -3.2060    -0.6590     0.1110 ca         1 MEK      -0.026000
      7 C10         -3.1070    -3.0160     0.1960 ca         1 MEK       0.179000
      8 C13         -1.4110     0.7740     1.0660 c          1 MEK       0.622700
      9 C15         -1.4010     5.1870     0.9090 c3         1 MEK       0.160600
     10 F3          -3.6440    -4.2210    -0.0120 f          1 MEK      -0.158000
     11 C9          -3.8220    -1.8790    -0.1330 ca         1 MEK      -0.134300
     12 C16         -5.2090    -2.0050    -0.6990 c3         1 MEK       0.217900
     13 O4          -5.6890    -0.7370    -1.0310 os         1 MEK      -0.451000
     14 C18         -7.4420     0.6270    -1.8990 c3         1 MEK       0.162600
     15 O5          -6.6530     1.1100    -2.9620 oh         1 MEK      -0.710000
     16 C11         -1.8300    -2.9500     0.7150 ca         1 MEK       0.064000
     17 F2          -1.1750    -4.0850     0.9720 f          1 MEK      -0.160000
     18 C12         -1.2100    -1.7320     0.9730 ca         1 MEK       0.350000
     19 N2           0.0660    -1.7260     1.5010 nu         1 MEK      -0.981000
     20 C1           1.0750    -0.8700     1.0990 ca         1 MEK       0.294000
     21 C2           1.1490    -0.3310    -0.1840 ca         1 MEK      -0.146000
     22 C3           2.1640     0.5430    -0.5420 ca         1 MEK      -0.056000
     23 I1           4.6930     2.1830    -0.1520 i          1 MEK      -0.302000
     24 O1          -1.0030     1.0180     2.1840 o          1 MEK      -0.552100
     25 O2          -1.0010     2.9320     0.2740 os         1 MEK      -0.209100
     26 C14         -2.0330     3.8440     0.6580 c3         1 MEK       0.127600
     27 O3          -0.8950     5.7030    -0.2990 oh         1 MEK      -0.653000
     28 HN1         -1.6770     1.4360    -0.8850 hn         1 MEK       0.344500
     29 H5           3.8710     0.5620     2.4020 ha         1 MEK       0.145000
     30 H8          -3.7490     0.2520    -0.0990 ha         1 MEK       0.147000
     31 H15         -2.1800     5.8280     1.3400 h1         1 MEK       0.032200
     32 H15A        -0.6190     5.0820     1.6710 h1         1 MEK       0.032200
     33 H17         -7.0590    -1.4200    -2.4240 h1         1 MEK       0.033200
     34 H17A        -7.7000    -1.1740    -0.7970 h1         1 MEK       0.033200
     35 H16         -5.1930    -2.6610    -1.5810 h1         1 MEK       0.039700
     36 H16A        -5.8640    -2.4930     0.0380 h1         1 MEK       0.039700
     37 H18         -8.5040     0.5730    -2.1680 h1         1 MEK       0.027700
     38 H18A        -7.3700     1.2700    -1.0120 h1         1 MEK       0.027700
     39 HO5         -6.9490     1.9990    -3.1740 ho         1 MEK       0.503000
     40 HN2          0.3070    -2.4650     2.1410 hn         1 MEK       0.523000
     41 H2           0.4080    -0.6030    -0.9250 ha         1 MEK       0.122000
     42 H3           2.1800     0.9450    -1.5450 ha         1 MEK       0.132000
     43 H14         -2.5190     3.5050     1.5770 h1         1 MEK       0.046700
     44 H14A        -2.7930     3.9110    -0.1280 h1         1 MEK       0.046700
     45 HO3         -0.4780     6.5480    -0.1110 ho         1 MEK       0.445000
     46 F1           2.0390    -1.0310     3.2310 f          1 MEK      -0.174000
     47 C17         -7.0020    -0.7680    -1.5410 c3         1 MEK       0.161600
@<TRIPOS>BOND
     1     1     8 1   
     2     1    25 1   
     3     1    28 1   
     4     2     3 ar  
     5     2    22 ar  
     6     2    23 1   
     7     3     4 ar  
     8     3    29 1   
     9     4    20 ar  
    10     4    46 1   
    11     5     6 ar  
    12     5     8 1   
    13     5    18 ar  
    14     6    11 ar  
    15     6    30 1   
    16     7    10 1   
    17     7    11 ar  
    18     7    16 ar  
    19     8    24 2   
    20     9    26 1   
    21     9    27 1   
    22     9    31 1   
    23     9    32 1   
    24    11    12 1   
    25    12    13 1   
    26    12    35 1   
    27    12    36 1   
    28    13    47 1   
    29    14    15 1   
    30    14    37 1   
    31    14    38 1   
    32    14    47 1   
    33    15    39 1   
    34    16    17 1   
    35    16    18 ar  
    36    18    19 1   
    37    19    20 1   
    38    19    40 1   
    39    20    21 ar  
    40    21    22 ar  
    41    21    41 1   
    42    22    42 1   
    43    25    26 1   
    44    26    43 1   
    45    26    44 1   
    46    27    45 1   
    47    33    47 1   
    48    34    47 1   
@<TRIPOS>SUBSTRUCTURE
     1 MEK         1 TEMP              0 ****  ****    0 ROOT
