@<TRIPOS>MOLECULE
MEK
   47    48     1     0     0
SMALL
No Charge or Current Charge


@<TRIPOS>ATOM
      1 N1          -1.8460     2.1090     0.6210 ns         1 MEK      -0.386400
      2 C4           3.3350     0.6700    -0.1630 ca         1 MEK       0.192000
      3 C5           3.4810    -0.1750     0.9460 ca         1 MEK      -0.089000
      4 C6           2.3850    -0.9290     1.3980 ca         1 MEK       0.137000
      5 C7          -2.0670    -0.3000     0.9420 ca         1 MEK      -0.199600
      6 C8          -3.4420    -0.3040     0.6010 ca         1 MEK      -0.026000
      7 C10         -3.4090    -2.7150     0.3430 ca         1 MEK       0.179000
      8 C13         -1.4280     1.0030     1.3460 c          1 MEK       0.622700
      9 C15         -1.1560     5.5360     1.9310 c3         1 MEK       0.160600
     10 F3          -4.0400    -3.8800     0.0640 f          1 MEK      -0.158000
     11 C9          -4.1150    -1.5010     0.2990 ca         1 MEK      -0.134300
     12 C16         -5.5960    -1.4610    -0.0560 c3         1 MEK       0.217900
     13 O4          -5.7170    -1.0600    -1.4300 os         1 MEK      -0.451000
     14 C18         -7.0640    -0.5390    -3.4000 c3         1 MEK       0.162600
     15 O5          -6.5240    -1.5720    -4.2490 oh         1 MEK      -0.710000
     16 C11         -2.0430    -2.7300     0.6700 ca         1 MEK       0.064000
     17 F2          -1.3810    -3.9160     0.6920 f          1 MEK      -0.160000
     18 C12         -1.3540    -1.5260     0.9490 ca         1 MEK       0.350000
     19 N2           0.0280    -1.5940     1.1970 nu         1 MEK      -0.981000
     20 C1           1.1270    -0.8380     0.7500 ca         1 MEK       0.294000
     21 C2           1.0030    -0.0020    -0.3770 ca         1 MEK      -0.146000
     22 C3           2.1010     0.7540    -0.8280 ca         1 MEK      -0.056000
     23 I1           5.0210     1.8350    -0.8620 i          1 MEK      -0.302000
     24 O1          -0.6680     1.1120     2.3010 o          1 MEK      -0.552100
     25 O2          -1.1760     3.3610     0.8450 os         1 MEK      -0.209100
     26 C14         -1.9410     4.2200     1.7110 c3         1 MEK       0.127600
     27 O3          -1.0540     6.2950     0.7120 oh         1 MEK      -0.653000
     28 HN1         -2.4030     2.0320    -0.2250 hn         1 MEK       0.344500
     29 H5           4.4380    -0.2460     1.4540 ha         1 MEK       0.145000
     30 H8          -4.0110     0.6250     0.6010 ha         1 MEK       0.147000
     31 H15         -1.6740     6.1260     2.6980 h1         1 MEK       0.032200
     32 H15A        -0.1570     5.2950     2.3190 h1         1 MEK       0.032200
     33 H17         -7.5910    -1.9340    -1.8100 h1         1 MEK       0.033200
     34 H17A        -7.6330    -0.2240    -1.3290 h1         1 MEK       0.033200
     35 H16         -6.0560    -2.4460     0.1030 h1         1 MEK       0.039700
     36 H16A        -6.1080    -0.7460     0.6010 h1         1 MEK       0.039700
     37 H18         -8.0940    -0.3090    -3.7010 h1         1 MEK       0.027700
     38 H18A        -6.4790     0.3860    -3.4990 h1         1 MEK       0.027700
     39 HO5         -6.4920    -1.2030    -5.1630 ho         1 MEK       0.503000
     40 HN2          0.3030    -2.4370     1.7070 hn         1 MEK       0.523000
     41 H2           0.0600     0.0590    -0.9130 ha         1 MEK       0.122000
     42 H3           1.9980     1.4020    -1.6950 ha         1 MEK       0.132000
     43 H14         -2.1020     3.7360     2.6830 h1         1 MEK       0.046700
     44 H14A        -2.9220     4.4450     1.2730 h1         1 MEK       0.046700
     45 HO3         -0.5220     7.0960     0.9170 ho         1 MEK       0.445000
     46 F1           2.5480    -1.7450     2.4690 f          1 MEK      -0.174000
     47 C17         -7.0740    -0.9700    -1.9090 c3         1 MEK       0.161600
@<TRIPOS>BOND
     1     1     8 1   
     2     1    25 1   
     3     1    28 1   
     4     2     3 ar  
     5     2    22 ar  
     6     2    23 1   
     7     3     4 ar  
     8     3    29 1   
     9     4    20 ar  
    10     4    46 1   
    11     5     6 ar  
    12     5     8 1   
    13     5    18 ar  
    14     6    11 ar  
    15     6    30 1   
    16     7    10 1   
    17     7    11 ar  
    18     7    16 ar  
    19     8    24 2   
    20     9    26 1   
    21     9    27 1   
    22     9    31 1   
    23     9    32 1   
    24    11    12 1   
    25    12    13 1   
    26    12    35 1   
    27    12    36 1   
    28    13    47 1   
    29    14    15 1   
    30    14    37 1   
    31    14    38 1   
    32    14    47 1   
    33    15    39 1   
    34    16    17 1   
    35    16    18 ar  
    36    18    19 1   
    37    19    20 1   
    38    19    40 1   
    39    20    21 ar  
    40    21    22 ar  
    41    21    41 1   
    42    22    42 1   
    43    25    26 1   
    44    26    43 1   
    45    26    44 1   
    46    27    45 1   
    47    33    47 1   
    48    34    47 1   
@<TRIPOS>SUBSTRUCTURE
     1 MEK         1 TEMP              0 ****  ****    0 ROOT
