@<TRIPOS>MOLECULE
MEL
   61    63     1     0     0
SMALL
bcc


@<TRIPOS>ATOM
      1 C1           1.1470     0.3820    -4.3700 c6         1 MEL      -0.093700
      2 C2           2.5480     0.7750    -3.9010 c6         1 MEL      -0.073400
      3 C3           3.5730     0.6220    -5.0220 c6         1 MEL      -0.072400
      4 C4           3.5600    -0.7930    -5.5920 c6         1 MEL      -0.073400
      5 C5           2.1610    -1.1900    -6.0510 c6         1 MEL      -0.072400
      6 C6           1.1410    -1.0410    -4.9240 c6         1 MEL      -0.073400
      7 N7          -1.2910     0.3060    -3.6480 n7         1 MEL      -0.800200
      8 C8           0.0690     0.6510    -3.2920 c3         1 MEL       0.133500
      9 C9           0.3750    -0.0790    -1.9940 c          1 MEL       0.700100
     10 O0           0.1940    -1.2840    -1.8570 o          1 MEL      -0.603100
     11 N11          0.8510     0.6530    -0.9850 nj         1 MEL      -0.477800
     12 C12          1.1960     0.2010     0.3400 cy         1 MEL       0.021700
     13 C13         -0.0050    -0.2820     1.1340 c          1 MEL       0.663100
     14 O14         -1.1190     0.1750     0.9390 o          1 MEL      -0.561100
     15 N15          0.2860    -1.1840     2.0850 ns         1 MEL      -0.575900
     16 C16         -0.6670    -1.6820     3.0460 c3         1 MEL       0.141300
     17 C17         -0.5170    -1.0640     4.4150 ca         1 MEL      -0.085300
     18 C18         -0.3000     0.3030     4.5740 ca         1 MEL      -0.123000
     19 C19         -0.1880     0.8580     5.8380 ca         1 MEL      -0.108500
     20 C20         -0.3020     0.0640     6.9780 ca         1 MEL      -0.204900
     21 C21         -0.5300    -1.3000     6.8210 ca         1 MEL      -0.108500
     22 C22         -0.6250    -1.8560     5.5530 ca         1 MEL      -0.123000
     23 C23         -0.1580     0.6770     8.3280 ce         1 MEL       0.666800
     24 N24          0.6370     1.6380     8.6060 n2         1 MEL      -0.854100
     25 N25         -0.9200     0.1050     9.3020 nv         1 MEL      -0.925800
     26 C26          1.6070     1.6610     0.6740 cy         1 MEL      -0.108400
     27 C27          1.1380     2.0600    -0.7390 cy         1 MEL       0.119000
     28 C28         -1.8390     0.9950    -4.7960 c3         1 MEL       0.019800
     29 C29         -3.1060     0.3080    -5.3350 c          1 MEL       0.928600
     30 O30         -3.8260     0.9990    -6.0820 o          1 MEL      -0.836800
     31 O31         -3.2840    -0.8860    -5.0200 o          1 MEL      -0.836800
     32 H11          0.9020     1.0520    -5.2050 hc         1 MEL       0.055700
     33 H21          2.5460     1.8080    -3.5420 hc         1 MEL       0.046200
     34 H22          2.8540     0.1500    -3.0540 hc         1 MEL       0.046200
     35 H31          3.3490     1.3400    -5.8180 hc         1 MEL       0.031950
     36 H32          4.5710     0.8710    -4.6530 hc         1 MEL       0.031950
     37 H41          4.2700    -0.8760    -6.4180 hc         1 MEL       0.027700
     38 H42          3.8980    -1.4910    -4.8190 hc         1 MEL       0.027700
     39 H51          1.8610    -0.5580    -6.8940 hc         1 MEL       0.031950
     40 H52          2.1610    -2.2180    -6.4210 hc         1 MEL       0.031950
     41 H61          1.3710    -1.7580    -4.1310 hc         1 MEL       0.046200
     42 H62          0.1450    -1.2990    -5.2950 hc         1 MEL       0.046200
     43 H71         -1.3910    -0.6910    -3.7880 hn         1 MEL       0.403800
     44 H81          0.0930     1.7310    -3.1000 h1         1 MEL       0.045700
     45 H121         2.0170    -0.5210     0.3630 h1         1 MEL       0.064700
     46 H151         1.2400    -1.4960     2.1760 hn         1 MEL       0.309500
     47 H161        -0.5610    -2.7650     3.1200 h1         1 MEL       0.072200
     48 H162        -1.6690    -1.4890     2.6620 h1         1 MEL       0.072200
     49 H181        -0.2230     0.9510     3.7100 ha         1 MEL       0.139000
     50 H191        -0.0310     1.9250     5.9340 ha         1 MEL       0.135500
     51 H211        -0.6070    -1.9450     7.6870 ha         1 MEL       0.135500
     52 H221        -0.7780    -2.9230     5.4510 ha         1 MEL       0.139000
     53 H241         1.2050     1.8760     7.8010 hn         1 MEL       0.388400
     54 H251        -0.9370     0.5780    10.1910 hn         1 MEL       0.412800
     55 H252        -1.7930    -0.3210     9.0400 hn         1 MEL       0.412800
     56 H261         1.0580     2.1260     1.4910 hc         1 MEL       0.056200
     57 H262         2.6730     1.7810     0.8440 hc         1 MEL       0.056200
     58 H271         0.2560     2.7000    -0.7700 h1         1 MEL       0.055700
     59 H272         1.9120     2.4820    -1.3810 h1         1 MEL       0.055700
     60 H281        -2.0710     2.0310    -4.5290 h1         1 MEL       0.010200
     61 H282        -1.1400     1.0560    -5.6470 h1         1 MEL       0.010200
@<TRIPOS>BOND
     1     1     2 1   
     2     1     6 1   
     3     1     8 1   
     4     1    32 1   
     5     2     3 1   
     6     2    33 1   
     7     2    34 1   
     8     3     4 1   
     9     3    35 1   
    10     3    36 1   
    11     4     5 1   
    12     4    37 1   
    13     4    38 1   
    14     5     6 1   
    15     5    39 1   
    16     5    40 1   
    17     6    41 1   
    18     6    42 1   
    19     7     8 1   
    20     7    28 1   
    21     7    43 1   
    22     8     9 1   
    23     8    44 1   
    24     9    10 2   
    25     9    11 1   
    26    11    12 1   
    27    11    27 1   
    28    12    13 1   
    29    12    26 1   
    30    12    45 1   
    31    13    14 2   
    32    13    15 1   
    33    15    16 1   
    34    15    46 1   
    35    16    17 1   
    36    16    47 1   
    37    16    48 1   
    38    17    18 ar  
    39    17    22 ar  
    40    18    19 ar  
    41    18    49 1   
    42    19    20 ar  
    43    19    50 1   
    44    20    21 ar  
    45    20    23 1   
    46    21    22 ar  
    47    21    51 1   
    48    22    52 1   
    49    23    24 2   
    50    23    25 1   
    51    24    53 1   
    52    25    54 1   
    53    25    55 1   
    54    26    27 1   
    55    26    56 1   
    56    26    57 1   
    57    27    58 1   
    58    27    59 1   
    59    28    29 1   
    60    28    60 1   
    61    28    61 1   
    62    29    30 1   
    63    29    31 1   
@<TRIPOS>SUBSTRUCTURE
     1 MEL         1 TEMP              0 ****  ****    0 ROOT
