@<TRIPOS>MOLECULE
MEL
   61    63     1     0     0
SMALL
No Charge or Current Charge


@<TRIPOS>ATOM
      1 C1           1.2810     0.3300    -4.3590 c6         1 MEL      -0.093700
      2 C2           2.8120     0.4620    -4.1010 c6         1 MEL      -0.073400
      3 C3           3.6320     0.1250    -5.3710 c6         1 MEL      -0.072400
      4 C4           3.2930    -1.2910    -5.8960 c6         1 MEL      -0.073400
      5 C5           1.7740    -1.4410    -6.1530 c6         1 MEL      -0.072400
      6 C6           0.9510    -1.1020    -4.8850 c6         1 MEL      -0.073400
      7 N7          -1.0530     0.7270    -3.3600 n7         1 MEL      -0.855400
      8 C8           0.4300     0.7660    -3.1070 c3         1 MEL       0.133500
      9 C9           0.8440     0.0000    -1.7760 c          1 MEL       0.633100
     10 O0           0.4320    -1.1540    -1.6460 o          1 MEL      -0.603100
     11 N11          1.7510     0.7380    -0.9360 nj         1 MEL      -0.410800
     12 C12          1.6860     0.0150     0.3900 cy         1 MEL       0.021700
     13 C13          0.3640    -0.5340     1.1230 c          1 MEL       0.596100
     14 O14         -0.8300    -0.2950     0.9680 o          1 MEL      -0.561100
     15 N15          0.7360    -1.4300     2.1060 ns         1 MEL      -0.508900
     16 C16         -0.1840    -2.0880     3.0380 c3         1 MEL       0.141300
     17 C17         -0.3530    -1.2750     4.3130 ca         1 MEL      -0.085300
     18 C18         -1.3740    -0.3130     4.4140 ca         1 MEL      -0.105000
     19 C19         -1.5270     0.4450     5.5880 ca         1 MEL      -0.090500
     20 C20         -0.6680     0.2450     6.6950 ca         1 MEL      -0.204900
     21 C21          0.3690    -0.7100     6.5750 ca         1 MEL      -0.090500
     22 C22          0.5200    -1.4650     5.3990 ca         1 MEL      -0.105000
     23 C23         -0.8040     1.0780     7.9310 ce         1 MEL       0.666800
     24 N24         -1.3890     2.2020     7.9560 n2         1 MEL      -0.854100
     25 N25         -0.4330     0.5330     9.1010 nv         1 MEL      -1.036200
     26 C26          1.4760     1.4800     0.9760 cy         1 MEL      -0.108400
     27 C27          0.8930     1.8540    -0.4370 cy         1 MEL       0.119000
     28 C28         -1.6000     1.5970    -4.4570 c3         1 MEL       0.019800
     29 C29         -3.1630     1.5400    -4.6460 c          1 MEL       0.718000
     30 O30         -3.8120     2.5640    -4.4690 o          1 MEL      -0.731500
     31 O31         -3.6740     0.4660    -4.9420 o          1 MEL      -0.731500
     32 H11          1.0350     1.0450    -5.1560 hc         1 MEL       0.055700
     33 H21          3.0510     1.4830    -3.7720 hc         1 MEL       0.046200
     34 H22          3.1230    -0.2090    -3.2890 hc         1 MEL       0.046200
     35 H31          3.4270     0.8690    -6.1530 hc         1 MEL       0.031950
     36 H32          4.7060     0.1920    -5.1500 hc         1 MEL       0.031950
     37 H41          3.8490    -1.4890    -6.8220 hc         1 MEL       0.027700
     38 H42          3.6210    -2.0440    -5.1660 hc         1 MEL       0.027700
     39 H51          1.4710    -0.7810    -6.9780 hc         1 MEL       0.031950
     40 H52          1.5520    -2.4670    -6.4770 hc         1 MEL       0.031950
     41 H61          1.1610    -1.8500    -4.1100 hc         1 MEL       0.046200
     42 H62         -0.1190    -1.1880    -5.1200 hc         1 MEL       0.046200
     43 H71         -1.3280    -0.2500    -3.5390 hn         1 MEL       0.459000
     44 H81          0.7030     1.8180    -2.9510 h1         1 MEL       0.045700
     45 H121         2.6260    -0.4600     0.6910 h1         1 MEL       0.064700
     46 H151         1.7280    -1.6050     2.2140 hn         1 MEL       0.309500
     47 H161         0.2170    -3.0810     3.2850 h1         1 MEL       0.072200
     48 H162        -1.1600    -2.2420     2.5570 h1         1 MEL       0.072200
     49 H181        -2.0500    -0.1480     3.5780 ha         1 MEL       0.121000
     50 H191        -2.3300     1.1770     5.6330 ha         1 MEL       0.117500
     51 H211         1.0740    -0.8670     7.3890 ha         1 MEL       0.117500
     52 H221         1.3240    -2.1950     5.3300 ha         1 MEL       0.121000
     53 H241        -1.5700     2.4780     6.9830 hn         1 MEL       0.388400
     54 H251        -0.8530     0.9810     9.9050 hn         1 MEL       0.468000
     55 H252        -0.4090    -0.4790     9.1200 hn         1 MEL       0.468000
     56 H261         0.8130     1.6490     1.8340 hc         1 MEL       0.056200
     57 H262         2.4200     1.9900     1.1990 hc         1 MEL       0.056200
     58 H271        -0.1910     1.7110    -0.5390 h1         1 MEL       0.055700
     59 H272         1.1950     2.8420    -0.8030 h1         1 MEL       0.055700
     60 H281        -1.3160     2.6420    -4.2740 h1         1 MEL       0.010200
     61 H282        -1.1610     1.3070    -5.4210 h1         1 MEL       0.010200
@<TRIPOS>BOND
     1     1     2 1   
     2     1     6 1   
     3     1     8 1   
     4     1    32 1   
     5     2     3 1   
     6     2    33 1   
     7     2    34 1   
     8     3     4 1   
     9     3    35 1   
    10     3    36 1   
    11     4     5 1   
    12     4    37 1   
    13     4    38 1   
    14     5     6 1   
    15     5    39 1   
    16     5    40 1   
    17     6    41 1   
    18     6    42 1   
    19     7     8 1   
    20     7    28 1   
    21     7    43 1   
    22     8     9 1   
    23     8    44 1   
    24     9    10 2   
    25     9    11 1   
    26    11    12 1   
    27    11    27 1   
    28    12    13 1   
    29    12    26 1   
    30    12    45 1   
    31    13    14 2   
    32    13    15 1   
    33    15    16 1   
    34    15    46 1   
    35    16    17 1   
    36    16    47 1   
    37    16    48 1   
    38    17    18 ar  
    39    17    22 ar  
    40    18    19 ar  
    41    18    49 1   
    42    19    20 ar  
    43    19    50 1   
    44    20    21 ar  
    45    20    23 1   
    46    21    22 ar  
    47    21    51 1   
    48    22    52 1   
    49    23    24 2   
    50    23    25 1   
    51    24    53 1   
    52    25    54 1   
    53    25    55 1   
    54    26    27 1   
    55    26    56 1   
    56    26    57 1   
    57    27    58 1   
    58    27    59 1   
    59    28    29 1   
    60    28    60 1   
    61    28    61 1   
    62    29    30 1   
    63    29    31 1   
@<TRIPOS>SUBSTRUCTURE
     1 MEL         1 TEMP              0 ****  ****    0 ROOT
