@<TRIPOS>MOLECULE
MEN
   19    18     1     0     0
SMALL
No Charge or Current Charge


@<TRIPOS>ATOM
      1 N          -15.7400   -22.4190    22.5640 n8         1 MEN      -0.874800
      2 CA         -14.9670   -21.6610    21.5130 c3         1 MEN       0.019500
      3 C          -14.6500   -22.4330    20.1510 c          1 MEN       0.939600
      4 O          -15.1520   -22.0140    19.1110 o          1 MEN      -0.827800
      5 CB         -13.6880   -21.0790    22.1720 c3         1 MEN      -0.180400
      6 CG         -13.0140   -20.0470    21.2600 c          1 MEN       0.698100
      7 OD1        -12.3370   -20.3590    20.2910 o          1 MEN      -0.613100
      8 ND2        -13.1890   -18.7350    21.6340 ns         1 MEN      -0.579900
      9 CE2        -12.6230   -17.5890    20.9220 c3         1 MEN       0.106300
     10 OXT        -14.0260   -23.4900    20.2000 o          1 MEN      -0.827800
     11 H          -15.7740   -21.8690    23.4280 hn         1 MEN       0.322300
     12 H2         -15.2190   -23.2660    22.8150 hn         1 MEN       0.322300
     13 HA         -15.5970   -20.8040    21.2370 h1         1 MEN       0.038700
     14 HB2        -13.9710   -20.5970    23.1160 hc         1 MEN       0.037700
     15 HB3        -12.9850   -21.8970    22.3680 hc         1 MEN       0.037700
     16 HD2        -13.7540   -18.5680    22.4590 hn         1 MEN       0.305500
     17 HE21       -12.9230   -16.6620    21.4280 h1         1 MEN       0.025367
     18 HE22       -11.5280   -17.6620    20.9170 h1         1 MEN       0.025367
     19 HE23       -12.9950   -17.5760    19.8900 h1         1 MEN       0.025367
@<TRIPOS>BOND
     1     1     2 1   
     2     1    11 1   
     3     1    12 1   
     4     2     3 1   
     5     2     5 1   
     6     2    13 1   
     7     3     4 1   
     8     3    10 1   
     9     5     6 1   
    10     5    14 1   
    11     5    15 1   
    12     6     7 2   
    13     6     8 1   
    14     8     9 1   
    15     8    16 1   
    16     9    17 1   
    17     9    18 1   
    18     9    19 1   
@<TRIPOS>SUBSTRUCTURE
     1 MEN         1 TEMP              0 ****  ****    0 ROOT
