@<TRIPOS>MOLECULE
MEN
   19    18     1     0     0
SMALL
bcc


@<TRIPOS>ATOM
      1 N          -15.6820   -22.4520    22.5030 n8         1 MEN      -0.874800
      2 CA         -14.9580   -21.4970    21.6850 c3         1 MEN       0.019500
      3 C          -14.7400   -22.0470    20.2580 c          1 MEN       0.939600
      4 O          -14.7080   -21.2030    19.3430 o          1 MEN      -0.827800
      5 CB         -13.5790   -21.1240    22.2810 c3         1 MEN      -0.180400
      6 CG         -12.8170   -20.1030    21.4660 c          1 MEN       0.698100
      7 OD1        -11.8060   -20.3750    20.8300 o          1 MEN      -0.613100
      8 ND2        -13.3250   -18.8580    21.4940 ns         1 MEN      -0.579900
      9 CE2        -12.7720   -17.7760    20.7180 c3         1 MEN       0.106300
     10 OXT        -14.5660   -23.2780    20.1570 o          1 MEN      -0.827800
     11 H          -15.6320   -22.1860    23.4790 hn         1 MEN       0.322300
     12 H2         -15.2260   -23.3530    22.4210 hn         1 MEN       0.322300
     13 HA         -15.5570   -20.5830    21.6190 h1         1 MEN       0.038700
     14 HB2        -13.7290   -20.7430    23.2970 hc         1 MEN       0.037700
     15 HB3        -12.9720   -22.0280    22.3580 hc         1 MEN       0.037700
     16 HD2        -14.1630   -18.6840    22.0230 hn         1 MEN       0.305500
     17 HE21       -13.3550   -16.8800    20.9100 h1         1 MEN       0.025367
     18 HE22       -11.7360   -17.5730    20.9880 h1         1 MEN       0.025367
     19 HE23       -12.8090   -17.9850    19.6470 h1         1 MEN       0.025367
@<TRIPOS>BOND
     1     1     2 1   
     2     1    11 1   
     3     1    12 1   
     4     2     3 1   
     5     2     5 1   
     6     2    13 1   
     7     3     4 1   
     8     3    10 1   
     9     5     6 1   
    10     5    14 1   
    11     5    15 1   
    12     6     7 2   
    13     6     8 1   
    14     8     9 1   
    15     8    16 1   
    16     9    17 1   
    17     9    18 1   
    18     9    19 1   
@<TRIPOS>SUBSTRUCTURE
     1 MEN         1 TEMP              0 ****  ****    0 ROOT
