@<TRIPOS>MOLECULE
MER
   52    53     1     0     0
SMALL
No Charge or Current Charge


@<TRIPOS>ATOM
      1 C1           4.0550    -0.2560     1.3220 c          1 MER       0.602900
      2 C2           0.8700     0.0130     0.2510 c2         1 MER      -0.208600
      3 C3           4.2110    -0.8150    -0.1000 c3         1 MER      -0.213700
      4 C4           2.9460    -0.5220    -0.9620 c5         1 MER       0.215500
      5 C5           1.4950     1.1490    -0.1250 ce         1 MER       0.128800
      6 O6           4.1010    -0.9560     2.3300 o          1 MER      -0.549100
      7 C7           5.5200    -0.2830    -0.7420 c3         1 MER       0.170300
      8 O8           5.7340    -0.9490    -1.9900 oh         1 MER      -0.659000
      9 C9           6.7780    -0.5060     0.1270 c3         1 MER      -0.130100
     10 N10          2.6530     0.9340    -0.9200 nu         1 MER      -0.819200
     11 C11          1.0970     2.6120     0.2190 c          1 MER       0.715200
     12 O12          1.7850     3.5200    -0.2410 o          1 MER      -0.692500
     13 O13          0.1180     2.8440     0.9180 o          1 MER      -0.692500
     14 S14         -0.6150    -0.1730     1.2510 ss         1 MER      -0.245600
     15 C15         -1.6200    -0.9650    -0.1070 c5         1 MER       0.000300
     16 C16         -3.0620    -1.2080     0.4140 c5         1 MER      -0.083400
     17 C17         -3.9510    -1.0290    -0.8720 c5         1 MER       0.082500
     18 C18          1.5700    -1.1250    -0.4750 c5         1 MER      -0.024500
     19 N19         -2.9980    -0.5860    -1.9560 n7         1 MER      -0.818400
     20 C20          1.6360    -2.4640     0.3040 c3         1 MER      -0.073100
     21 C21         -1.8880     0.0670    -1.2240 c5         1 MER       0.145800
     22 C22         -5.1310    -0.0080    -0.5470 c          1 MER       0.611100
     23 N23         -6.0970    -0.5230     0.3650 n          1 MER      -0.426800
     24 O24         -5.2120     1.1420    -0.9720 o          1 MER      -0.558100
     25 C25         -6.2920    -1.9750     0.5900 c3         1 MER       0.091300
     26 C26         -7.1550     0.3720     0.8820 c3         1 MER       0.091300
     27 H1           3.9260     0.8470     1.4040 h4         1 MER       0.023200
     28 H3           4.3250    -1.9000    -0.0020 hc         1 MER       0.053700
     29 H4           3.1420    -0.8660    -1.9880 h1         1 MER       0.047700
     30 H7           5.4150     0.8010    -0.9090 h1         1 MER       0.094700
     31 HO8          5.9580    -1.8810    -1.7800 ho         1 MER       0.429000
     32 H9           6.8930    -1.5640     0.3910 hc         1 MER       0.038700
     33 H9A          7.6780    -0.1860    -0.4120 hc         1 MER       0.038700
     34 H9B          6.7270     0.0780     1.0540 hc         1 MER       0.038700
     35 HN10         2.8640     1.5960    -1.6720 hn         1 MER       0.500000
     36 H15         -1.1610    -1.8850    -0.4870 h1         1 MER       0.042700
     37 H16         -3.1650    -2.2020     0.8610 hc         1 MER       0.053700
     38 H16A        -3.3330    -0.4790     1.1880 hc         1 MER       0.053700
     39 H17         -4.4000    -1.9820    -1.1780 h1         1 MER       0.042700
     40 H18          0.9830    -1.3560    -1.3710 hc         1 MER       0.027700
     41 HN19        -2.6180    -1.4240    -2.4140 hn         1 MER       0.389000
     42 H20          0.6370    -2.8840     0.4640 hc         1 MER       0.029700
     43 H20A         2.2160    -3.2120    -0.2510 hc         1 MER       0.029700
     44 H20B         2.0940    -2.3420     1.2900 hc         1 MER       0.029700
     45 H21         -2.1950     1.0390    -0.8100 h1         1 MER       0.087200
     46 H21A        -1.0060     0.2330    -1.8610 h1         1 MER       0.087200
     47 H25         -5.4650    -2.3820     1.1840 h1         1 MER       0.033533
     48 H25A        -7.2280    -2.1570     1.1340 h1         1 MER       0.033533
     49 H25B        -6.3500    -2.5010    -0.3720 h1         1 MER       0.033533
     50 H26         -7.9130     0.5350     0.1050 h1         1 MER       0.033533
     51 H26A        -7.6340    -0.0710     1.7650 h1         1 MER       0.033533
     52 H26B        -6.7220     1.3380     1.1730 h1         1 MER       0.033533
@<TRIPOS>BOND
     1     1     3 1   
     2     1     6 2   
     3     1    27 1   
     4     2     5 2   
     5     2    14 1   
     6     2    18 1   
     7     3     4 1   
     8     3     7 1   
     9     3    28 1   
    10     4    10 1   
    11     4    18 1   
    12     4    29 1   
    13     5    10 1   
    14     5    11 1   
    15     7     8 1   
    16     7     9 1   
    17     7    30 1   
    18     8    31 1   
    19     9    32 1   
    20     9    33 1   
    21     9    34 1   
    22    10    35 1   
    23    11    12 1   
    24    11    13 1   
    25    14    15 1   
    26    15    16 1   
    27    15    21 1   
    28    15    36 1   
    29    16    17 1   
    30    16    37 1   
    31    16    38 1   
    32    17    19 1   
    33    17    22 1   
    34    17    39 1   
    35    18    20 1   
    36    18    40 1   
    37    19    21 1   
    38    19    41 1   
    39    20    42 1   
    40    20    43 1   
    41    20    44 1   
    42    21    45 1   
    43    21    46 1   
    44    22    23 1   
    45    22    24 2   
    46    23    25 1   
    47    23    26 1   
    48    25    47 1   
    49    25    48 1   
    50    25    49 1   
    51    26    50 1   
    52    26    51 1   
    53    26    52 1   
@<TRIPOS>SUBSTRUCTURE
     1 MER         1 TEMP              0 ****  ****    0 ROOT
