@<TRIPOS>MOLECULE
MER
   52    53     1     0     0
SMALL
abcg2


@<TRIPOS>ATOM
      1 C1           3.7670    -0.3240     1.3630 c          1 MER       0.602900
      2 C2           0.9220    -0.2100     0.0100 c2         1 MER      -0.208600
      3 C3           4.1400    -0.8250    -0.0050 c3         1 MER      -0.213700
      4 C4           3.0130    -0.5520    -1.0280 c5         1 MER       0.215500
      5 C5           1.4450     0.9930    -0.3020 ce         1 MER       0.128800
      6 O6           3.7130    -1.0060     2.3610 o          1 MER      -0.549100
      7 C7           5.4510    -0.1380    -0.4520 c3         1 MER       0.170300
      8 O8           5.8370    -0.5750    -1.7380 oh         1 MER      -0.659000
      9 C9           6.5760    -0.3280     0.5550 c3         1 MER      -0.130100
     10 N10          2.6480     0.8590    -0.9720 nu         1 MER      -0.819200
     11 C11          0.9240     2.3930    -0.0580 c          1 MER       0.715200
     12 O12          1.2500     3.2210    -0.9340 o          1 MER      -0.692500
     13 O13          0.2400     2.5880     0.9560 o          1 MER      -0.692500
     14 S14         -0.4960    -0.5340     0.9710 ss         1 MER      -0.245600
     15 C15         -1.6530    -1.0990    -0.3120 c5         1 MER       0.000300
     16 C16         -3.0360    -1.3780     0.2790 c5         1 MER      -0.083400
     17 C17         -4.0140    -1.0040    -0.8790 c5         1 MER       0.082500
     18 C18          1.6920    -1.2880    -0.7340 c5         1 MER      -0.024500
     19 N19         -3.2120    -0.4760    -1.9740 n7         1 MER      -0.818400
     20 C20          1.7940    -2.6460    -0.0610 c3         1 MER      -0.073100
     21 C21         -1.9460    -0.0620    -1.3930 c5         1 MER       0.145800
     22 C22         -5.0130     0.0460    -0.3930 c          1 MER       0.611100
     23 N23         -5.9880    -0.3730     0.4450 n          1 MER      -0.426800
     24 O24         -4.8990     1.2150    -0.7300 o          1 MER      -0.558100
     25 C25         -6.1660    -1.7290     0.9150 c3         1 MER       0.091300
     26 C26         -6.9030     0.5750     1.0440 c3         1 MER       0.091300
     27 H1           3.5840     0.7620     1.4220 h4         1 MER       0.023200
     28 H3           4.3210    -1.9030     0.0650 hc         1 MER       0.053700
     29 H4           3.3930    -0.8150    -2.0150 h1         1 MER       0.047700
     30 H7           5.2520     0.9330    -0.5580 h1         1 MER       0.094700
     31 HO8          6.0830    -1.5050    -1.6790 ho         1 MER       0.429000
     32 H9           6.7710    -1.3870     0.7400 hc         1 MER       0.038700
     33 H9A          7.4950     0.1290     0.1860 hc         1 MER       0.038700
     34 H9B          6.3450     0.1390     1.5130 hc         1 MER       0.038700
     35 HN10         2.8240     1.4630    -1.7570 hn         1 MER       0.500000
     36 H15         -1.2640    -2.0090    -0.7770 h1         1 MER       0.042700
     37 H16         -3.1490    -2.4160     0.5900 hc         1 MER       0.053700
     38 H16A        -3.2140    -0.7570     1.1630 hc         1 MER       0.053700
     39 H17         -4.5470    -1.8860    -1.2370 h1         1 MER       0.042700
     40 H18          1.1840    -1.4490    -1.6970 hc         1 MER       0.027700
     41 HN19        -3.0410    -1.2240    -2.6330 hn         1 MER       0.389000
     42 H20          0.8020    -3.0850     0.0480 hc         1 MER       0.029700
     43 H20A         2.3930    -3.3330    -0.6610 hc         1 MER       0.029700
     44 H20B         2.2340    -2.5930     0.9330 hc         1 MER       0.029700
     45 H21         -2.0410     0.9280    -0.9380 h1         1 MER       0.087200
     46 H21A        -1.1670    -0.0040    -2.1540 h1         1 MER       0.087200
     47 H25         -5.8790    -1.8220     1.9660 h1         1 MER       0.033533
     48 H25A        -7.2170    -2.0110     0.8300 h1         1 MER       0.033533
     49 H25B        -5.5910    -2.4500     0.3450 h1         1 MER       0.033533
     50 H26         -7.9320     0.3380     0.7660 h1         1 MER       0.033533
     51 H26A        -6.8310     0.5350     2.1330 h1         1 MER       0.033533
     52 H26B        -6.6770     1.5840     0.7170 h1         1 MER       0.033533
@<TRIPOS>BOND
     1     1     3 1   
     2     1     6 2   
     3     1    27 1   
     4     2     5 2   
     5     2    14 1   
     6     2    18 1   
     7     3     4 1   
     8     3     7 1   
     9     3    28 1   
    10     4    10 1   
    11     4    18 1   
    12     4    29 1   
    13     5    10 1   
    14     5    11 1   
    15     7     8 1   
    16     7     9 1   
    17     7    30 1   
    18     8    31 1   
    19     9    32 1   
    20     9    33 1   
    21     9    34 1   
    22    10    35 1   
    23    11    12 1   
    24    11    13 1   
    25    14    15 1   
    26    15    16 1   
    27    15    21 1   
    28    15    36 1   
    29    16    17 1   
    30    16    37 1   
    31    16    38 1   
    32    17    19 1   
    33    17    22 1   
    34    17    39 1   
    35    18    20 1   
    36    18    40 1   
    37    19    21 1   
    38    19    41 1   
    39    20    42 1   
    40    20    43 1   
    41    20    44 1   
    42    21    45 1   
    43    21    46 1   
    44    22    23 1   
    45    22    24 2   
    46    23    25 1   
    47    23    26 1   
    48    25    47 1   
    49    25    48 1   
    50    25    49 1   
    51    26    50 1   
    52    26    51 1   
    53    26    52 1   
@<TRIPOS>SUBSTRUCTURE
     1 MER         1 TEMP              0 ****  ****    0 ROOT
