@<TRIPOS>MOLECULE
MES
   25    25     1     0     0
SMALL
No Charge or Current Charge


@<TRIPOS>ATOM
      1 O1           9.0480    45.4050    48.0380 os         1 MES      -0.412000
      2 C2           7.7110    45.3690    48.5890 c6         1 MES       0.125100
      3 C3           6.9240    46.6320    48.1550 c6         1 MES       0.053600
      4 N4           7.6770    47.9260    48.5420 nx         1 MES      -0.662000
      5 C5           9.1410    47.8600    48.0400 c6         1 MES       0.053600
      6 C6           9.8280    46.5410    48.4780 c6         1 MES       0.125100
      7 C7           6.9420    49.1780    48.0910 c3         1 MES       0.142600
      8 C8           7.5570    50.4360    48.7070 c3         1 MES      -0.384400
      9 S            6.6530    51.9000    48.2020 s6         1 MES       1.303600
     10 O1S          6.7780    51.8930    46.7380 o          1 MES      -0.658867
     11 O2S          7.3700    52.9920    48.8750 o          1 MES      -0.658867
     12 O3S          5.2950    51.6550    48.7050 o          1 MES      -0.658867
     13 H21          7.1970    44.4670    48.2280 h1         1 MES       0.079950
     14 H22          7.7670    45.3130    49.6860 h1         1 MES       0.079950
     15 H31          6.7940    46.6390    47.0680 hx         1 MES       0.109450
     16 H32          5.9290    46.6550    48.6130 hx         1 MES       0.109450
     17 HN4          7.7060    47.9690    49.5870 hn         1 MES       0.491000
     18 H51          9.1180    47.9290    46.9480 hx         1 MES       0.109450
     19 H52          9.6820    48.7320    48.4230 hx         1 MES       0.109450
     20 H61          9.9350    46.5120    49.5720 h1         1 MES       0.079950
     21 H62         10.8330    46.4800    48.0370 h1         1 MES       0.079950
     22 H71          6.9780    49.2380    46.9990 hx         1 MES       0.104700
     23 H72          5.8930    49.1010    48.3950 hx         1 MES       0.104700
     24 H81          7.5140    50.4040    49.8000 h1         1 MES       0.087200
     25 H82          8.5890    50.5820    48.3720 h1         1 MES       0.087200
@<TRIPOS>BOND
     1     1     2 1   
     2     1     6 1   
     3     2     3 1   
     4     2    13 1   
     5     2    14 1   
     6     3     4 1   
     7     3    15 1   
     8     3    16 1   
     9     4     5 1   
    10     4     7 1   
    11     4    17 1   
    12     5     6 1   
    13     5    18 1   
    14     5    19 1   
    15     6    20 1   
    16     6    21 1   
    17     7     8 1   
    18     7    22 1   
    19     7    23 1   
    20     8     9 1   
    21     8    24 1   
    22     8    25 1   
    23     9    10 1   
    24     9    11 1   
    25     9    12 1   
@<TRIPOS>SUBSTRUCTURE
     1 MES         1 TEMP              0 ****  ****    0 ROOT
