@<TRIPOS>MOLECULE
MES
   25    25     1     0     0
SMALL
abcg2


@<TRIPOS>ATOM
      1 O1           9.0170    45.4140    48.0630 os         1 MES      -0.412000
      2 C2           7.7100    45.4460    48.5750 c6         1 MES       0.125100
      3 C3           6.9680    46.6910    48.1310 c6         1 MES       0.053600
      4 N4           7.7160    47.9170    48.5480 nx         1 MES      -0.662000
      5 C5           9.1300    47.8320    48.0700 c6         1 MES       0.053600
      6 C6           9.7560    46.5220    48.5100 c6         1 MES       0.125100
      7 C7           7.0110    49.1510    48.0800 c3         1 MES       0.142600
      8 C8           7.6190    50.4170    48.6450 c3         1 MES      -0.384400
      9 S            6.5950    51.8560    48.2320 s6         1 MES       1.303600
     10 O1S          6.5940    51.9070    46.7590 o          1 MES      -0.658867
     11 O2S          7.2820    52.9900    48.8700 o          1 MES      -0.658867
     12 O3S          5.2690    51.5650    48.8060 o          1 MES      -0.658867
     13 H21          7.1760    44.5740    48.2000 h1         1 MES       0.079950
     14 H22          7.7150    45.3880    49.6730 h1         1 MES       0.079950
     15 H31          6.8690    46.7340    47.0460 hx         1 MES       0.109450
     16 H32          5.9790    46.7340    48.5830 hx         1 MES       0.109450
     17 HN4          7.7280    47.9410    49.5730 hn         1 MES       0.491000
     18 H51          9.1030    47.9220    46.9840 hx         1 MES       0.109450
     19 H52          9.6890    48.6700    48.4830 hx         1 MES       0.109450
     20 H61          9.8600    46.5110    49.6030 h1         1 MES       0.079950
     21 H62         10.7550    46.4590    48.0800 h1         1 MES       0.079950
     22 H71          7.0410    49.1380    46.9910 hx         1 MES       0.104700
     23 H72          5.9770    49.0500    48.4050 hx         1 MES       0.104700
     24 H81          7.6880    50.3660    49.7330 h1         1 MES       0.087200
     25 H82          8.6140    50.6120    48.2440 h1         1 MES       0.087200
@<TRIPOS>BOND
     1     1     2 1   
     2     1     6 1   
     3     2     3 1   
     4     2    13 1   
     5     2    14 1   
     6     3     4 1   
     7     3    15 1   
     8     3    16 1   
     9     4     5 1   
    10     4     7 1   
    11     4    17 1   
    12     5     6 1   
    13     5    18 1   
    14     5    19 1   
    15     6    20 1   
    16     6    21 1   
    17     7     8 1   
    18     7    22 1   
    19     7    23 1   
    20     8     9 1   
    21     8    24 1   
    22     8    25 1   
    23     9    10 1   
    24     9    11 1   
    25     9    12 1   
@<TRIPOS>SUBSTRUCTURE
     1 MES         1 TEMP              0 ****  ****    0 ROOT
