@<TRIPOS>MOLECULE
MEU
   13    12     1     0     0
SMALL
bcc


@<TRIPOS>ATOM
      1 CB           2.3810    -0.0060    -0.0090 c3         1 MEU       0.130700
      2 OXT          1.1000     0.6220     0.0130 os         1 MEU      -0.430900
      3 N           -2.4090    -0.1870    -0.0720 n8         1 MEU      -0.868800
      4 CA          -1.2380     0.6550     0.0170 c3         1 MEU       0.089800
      5 C            0.0300    -0.1630    -0.0260 c          1 MEU       0.635100
      6 O            0.0830    -1.3640    -0.0750 o          1 MEU      -0.513000
      7 HB1          3.1100     0.7960     0.0470 h1         1 MEU       0.048033
      8 HB2          2.5140    -0.6730     0.8420 h1         1 MEU       0.048033
      9 HB3          2.5330    -0.5680    -0.9310 h1         1 MEU       0.048033
     10 H           -2.5220    -0.7100     0.7870 hn         1 MEU       0.348800
     11 H2          -3.2270     0.4020    -0.1490 hn         1 MEU       0.348800
     12 HA1         -1.2220     1.3410    -0.8340 h1         1 MEU       0.057700
     13 HA2         -1.1880     1.2920     0.9120 h1         1 MEU       0.057700
@<TRIPOS>BOND
     1     1     2 1   
     2     1     7 1   
     3     1     8 1   
     4     1     9 1   
     5     2     5 1   
     6     3     4 1   
     7     3    10 1   
     8     3    11 1   
     9     4     5 1   
    10     4    12 1   
    11     4    13 1   
    12     5     6 2   
@<TRIPOS>SUBSTRUCTURE
     1 MEU         1 TEMP              0 ****  ****    0 ROOT
