@<TRIPOS>MOLECULE
MEU
   13    12     1     0     0
SMALL
No Charge or Current Charge


@<TRIPOS>ATOM
      1 CB           2.4660     0.0230    -0.0460 c3         1 MEU       0.130700
      2 OXT          1.1620     0.6330    -0.0440 os         1 MEU      -0.430900
      3 N           -2.5530    -0.1190    -0.1750 n8         1 MEU      -0.868800
      4 CA          -1.2660     0.6370     0.0310 c3         1 MEU       0.089800
      5 C            0.0620    -0.1860     0.0330 c          1 MEU       0.635100
      6 O            0.1200    -1.4100     0.1110 o          1 MEU      -0.513000
      7 HB1          3.2470     0.7910    -0.1110 h1         1 MEU       0.048033
      8 HB2          2.6310    -0.5520     0.8750 h1         1 MEU       0.048033
      9 HB3          2.5810    -0.6530    -0.9030 h1         1 MEU       0.048033
     10 H           -2.6670    -0.8080     0.5780 hn         1 MEU       0.348800
     11 H2          -3.3480     0.5200    -0.0600 hn         1 MEU       0.348800
     12 HA1         -1.1770     1.3950    -0.7590 h1         1 MEU       0.057700
     13 HA2         -1.3150     1.1670     0.9910 h1         1 MEU       0.057700
@<TRIPOS>BOND
     1     1     2 1   
     2     1     7 1   
     3     1     8 1   
     4     1     9 1   
     5     2     5 1   
     6     3     4 1   
     7     3    10 1   
     8     3    11 1   
     9     4     5 1   
    10     4    12 1   
    11     4    13 1   
    12     5     6 2   
@<TRIPOS>SUBSTRUCTURE
     1 MEU         1 TEMP              0 ****  ****    0 ROOT
