@<TRIPOS>MOLECULE
MEV
   21    20     1     0     0
SMALL
bcc


@<TRIPOS>ATOM
      1 C8          -2.7790     0.1800    -0.0220 c3         1 MEV       0.136400
      2 O8          -3.8870    -0.6960     0.0760 oh         1 MEV      -0.613800
      3 C2          -1.5140    -0.6570    -0.0540 c3         1 MEV      -0.119400
      4 C3          -0.1980     0.1460    -0.0330 c3         1 MEV       0.186800
      5 O7          -0.1550     0.9610     1.1310 oh         1 MEV      -0.591800
      6 C4           0.9560    -0.8620    -0.0420 c3         1 MEV      -0.234400
      7 C5           2.4170    -0.3740     0.0480 c          1 MEV       0.931600
      8 O3           2.6660     0.8450     0.0820 o          1 MEV      -0.838800
      9 O4           3.2630    -1.2950     0.0780 o          1 MEV      -0.838800
     10 C6          -0.1270     1.0870    -1.2300 c3         1 MEV      -0.073100
     11 H81         -2.7430     0.8700     0.8290 h1         1 MEV       0.019700
     12 H82         -2.8490     0.7940    -0.9280 h1         1 MEV       0.019700
     13 HX2         -4.6860    -0.1620     0.0910 ho         1 MEV       0.385000
     14 H21         -1.5270    -1.2950    -0.9440 hc         1 MEV       0.042700
     15 H22         -1.5240    -1.3330     0.8100 hc         1 MEV       0.042700
     16 HX          -0.1330     0.3820     1.8990 ho         1 MEV       0.388000
     17 H41          0.8020    -1.5670     0.7860 hc         1 MEV       0.023200
     18 H42          0.8700    -1.4790    -0.9430 hc         1 MEV       0.023200
     19 H61          0.8210     1.6180    -1.2440 hc         1 MEV       0.036367
     20 H62         -0.2160     0.5210    -2.1590 hc         1 MEV       0.036367
     21 H63         -0.9320     1.8240    -1.2150 hc         1 MEV       0.036367
@<TRIPOS>BOND
     1     1     2 1   
     2     1     3 1   
     3     1    11 1   
     4     1    12 1   
     5     2    13 1   
     6     3     4 1   
     7     3    14 1   
     8     3    15 1   
     9     4     5 1   
    10     4     6 1   
    11     4    10 1   
    12     5    16 1   
    13     6     7 1   
    14     6    17 1   
    15     6    18 1   
    16     7     8 1   
    17     7     9 1   
    18    10    19 1   
    19    10    20 1   
    20    10    21 1   
@<TRIPOS>SUBSTRUCTURE
     1 MEV         1 TEMP              0 ****  ****    0 ROOT
