@<TRIPOS>MOLECULE
MEV
   21    20     1     0     0
SMALL
No Charge or Current Charge


@<TRIPOS>ATOM
      1 C8          -2.8470     0.2000    -0.0980 c3         1 MEV       0.159600
      2 O8          -4.0210    -0.6120     0.0070 oh         1 MEV      -0.676000
      3 C2          -1.5890    -0.6950    -0.0020 c3         1 MEV      -0.119400
      4 C3          -0.2200     0.0490    -0.0470 c3         1 MEV       0.210000
      5 O7          -0.1670     0.9600     1.0490 oh         1 MEV      -0.654000
      6 C4           0.9330    -0.9700     0.1590 c3         1 MEV      -0.234400
      7 C5           2.2960    -0.2750     0.2640 c          1 MEV       0.721000
      8 O3           2.5640     0.2650     1.3260 o          1 MEV      -0.733500
      9 O4           3.0040    -0.2180    -0.7290 o          1 MEV      -0.733500
     10 C6          -0.0510     0.8590    -1.3610 c3         1 MEV      -0.073100
     11 H81         -2.8320     0.9460     0.7080 h1         1 MEV       0.019700
     12 H82         -2.8510     0.7350    -1.0560 h1         1 MEV       0.019700
     13 HX2         -4.7930    -0.0050    -0.0440 ho         1 MEV       0.424000
     14 H21         -1.6190    -1.4270    -0.8190 hc         1 MEV       0.042700
     15 H22         -1.6500    -1.2710     0.9300 hc         1 MEV       0.042700
     16 HX           0.7560     0.8940     1.3920 ho         1 MEV       0.427000
     17 H41          0.7150    -1.4630     1.1150 hc         1 MEV       0.023200
     18 H42          0.9190    -1.6640    -0.6910 hc         1 MEV       0.023200
     19 H61          0.9050     1.3950    -1.3830 hc         1 MEV       0.036367
     20 H62         -0.0880     0.1950    -2.2330 hc         1 MEV       0.036367
     21 H63         -0.8390     1.6120    -1.4720 hc         1 MEV       0.036367
@<TRIPOS>BOND
     1     1     2 1   
     2     1     3 1   
     3     1    11 1   
     4     1    12 1   
     5     2    13 1   
     6     3     4 1   
     7     3    14 1   
     8     3    15 1   
     9     4     5 1   
    10     4     6 1   
    11     4    10 1   
    12     5    16 1   
    13     6     7 1   
    14     6    17 1   
    15     6    18 1   
    16     7     8 1   
    17     7     9 1   
    18    10    19 1   
    19    10    20 1   
    20    10    21 1   
@<TRIPOS>SUBSTRUCTURE
     1 MEV         1 TEMP              0 ****  ****    0 ROOT
