@<TRIPOS>MOLECULE
MEW
   20    21     1     0     0
SMALL
bcc


@<TRIPOS>ATOM
      1 CAN          3.2930    -1.2600    -0.0150 c3         1 MEW      -0.143400
      2 CAT          1.9180    -0.6880    -0.0110 cc         1 MEW       0.505900
      3 NAO          0.8810    -1.4460    -0.0490 nd         1 MEW      -0.629100
      4 CAV         -0.3570    -0.8440    -0.0420 ca         1 MEW       0.188400
      5 CAK         -1.5000    -1.6550    -0.0800 ca         1 MEW      -0.123000
      6 CAG         -2.7550    -1.0870    -0.0750 ca         1 MEW      -0.093000
      7 CAH         -2.9110     0.3030    -0.0310 ca         1 MEW      -0.152000
      8 CAL         -1.7990     1.1150     0.0070 ca         1 MEW      -0.058000
      9 CAW         -0.5200     0.5500     0.0020 ca         1 MEW      -0.204600
     10 CAU          0.6660     1.3950     0.0440 c          1 MEW       0.721100
     11 OAC          0.6700     2.6120     0.0840 o          1 MEW      -0.613500
     12 NAQ          1.8390     0.6750     0.0350 ns         1 MEW      -0.500400
     13 H1           3.8410    -0.9520     0.8770 hc         1 MEW       0.066367
     14 H2           3.2480    -2.3440    -0.0440 hc         1 MEW       0.066367
     15 H3           3.8550    -0.9050    -0.8800 hc         1 MEW       0.066367
     16 H4          -1.3750    -2.7300    -0.1130 ha         1 MEW       0.150000
     17 H5          -3.6290    -1.7240    -0.1050 ha         1 MEW       0.135000
     18 H6          -3.9020     0.7370    -0.0270 ha         1 MEW       0.138000
     19 H7          -1.9060     2.1910     0.0410 ha         1 MEW       0.153000
     20 H8           2.7000     1.2070     0.0690 hn         1 MEW       0.327500
@<TRIPOS>BOND
     1     1     2 1   
     2     1    13 1   
     3     1    14 1   
     4     1    15 1   
     5     2     3 2   
     6     2    12 1   
     7     3     4 1   
     8     4     5 ar  
     9     4     9 ar  
    10     5     6 ar  
    11     5    16 1   
    12     6     7 ar  
    13     6    17 1   
    14     7     8 ar  
    15     7    18 1   
    16     8     9 ar  
    17     8    19 1   
    18     9    10 1   
    19    10    11 2   
    20    10    12 1   
    21    12    20 1   
@<TRIPOS>SUBSTRUCTURE
     1 MEW         1 TEMP              0 ****  ****    0 ROOT
