@<TRIPOS>MOLECULE
MEW
   20    21     1     0     0
SMALL
No Charge or Current Charge


@<TRIPOS>ATOM
      1 CAN          3.3270    -1.2310    -0.0130 c3         1 MEW      -0.143400
      2 CAT          1.9260    -0.6980    -0.0110 cc         1 MEW       0.505900
      3 NAO          0.8760    -1.5170    -0.0490 nd         1 MEW      -0.629100
      4 CAV         -0.3690    -0.8620    -0.0410 ca         1 MEW       0.188400
      5 CAK         -1.5250    -1.6640    -0.0800 ca         1 MEW      -0.105000
      6 CAG         -2.8070    -1.0860    -0.0750 ca         1 MEW      -0.075000
      7 CAH         -2.9440     0.3090    -0.0310 ca         1 MEW      -0.134000
      8 CAL         -1.8010     1.1240     0.0080 ca         1 MEW      -0.040000
      9 CAW         -0.5160     0.5390     0.0030 ca         1 MEW      -0.204600
     10 CAU          0.7060     1.3780     0.0440 c          1 MEW       0.578600
     11 OAC          0.7010     2.5990     0.0840 o          1 MEW      -0.538000
     12 NAQ          1.8560     0.6670     0.0330 ns         1 MEW      -0.433400
     13 H1           3.8630    -0.9220     0.8930 hc         1 MEW       0.066367
     14 H2           3.3350    -2.3260    -0.0480 hc         1 MEW       0.066367
     15 H3           3.8820    -0.8630    -0.8840 hc         1 MEW       0.066367
     16 H4          -1.4270    -2.7460    -0.1150 ha         1 MEW       0.132000
     17 H5          -3.6900    -1.7210    -0.1060 ha         1 MEW       0.117000
     18 H6          -3.9340     0.7600    -0.0270 ha         1 MEW       0.120000
     19 H7          -1.9150     2.2060     0.0420 ha         1 MEW       0.135000
     20 H8           2.7110     1.2030     0.0600 hn         1 MEW       0.327500
@<TRIPOS>BOND
     1     1     2 1   
     2     1    13 1   
     3     1    14 1   
     4     1    15 1   
     5     2     3 2   
     6     2    12 1   
     7     3     4 1   
     8     4     5 ar  
     9     4     9 ar  
    10     5     6 ar  
    11     5    16 1   
    12     6     7 ar  
    13     6    17 1   
    14     7     8 ar  
    15     7    18 1   
    16     8     9 ar  
    17     8    19 1   
    18     9    10 1   
    19    10    11 2   
    20    10    12 1   
    21    12    20 1   
@<TRIPOS>SUBSTRUCTURE
     1 MEW         1 TEMP              0 ****  ****    0 ROOT
