@<TRIPOS>MOLECULE
MEX
   28    30     1     0     0
SMALL
bcc


@<TRIPOS>ATOM
      1 C1          -1.5050    -0.0990     1.4920 ca         1 MEX      -0.036000
      2 C2          -0.8520     0.1180     0.2880 ca         1 MEX      -0.028400
      3 C3          -1.5460    -0.0540    -0.9110 ca         1 MEX       0.196100
      4 C4          -2.8830    -0.4390    -0.8860 ca         1 MEX      -0.329000
      5 C5          -3.5230    -0.6540     0.3310 ca         1 MEX       0.194100
      6 C6          -2.8330    -0.4830     1.5310 ca         1 MEX      -0.201000
      7 O7          -4.8100    -1.0300     0.4010 oh         1 MEX      -0.488100
      8 O8          -0.8750     0.1650    -2.0500 oh         1 MEX      -0.474100
      9 N9           0.5080     0.4860     0.2540 n          1 MEX      -0.267200
     10 C10          1.5790    -0.3870     0.1840 ca         1 MEX       0.017600
     11 C11          2.7330     0.3950     0.0790 ca         1 MEX       0.005600
     12 N12          2.3160     1.7090     0.0750 ns         1 MEX      -0.458100
     13 C13          0.9520     1.7920     0.1670 c          1 MEX       0.813500
     14 C14          1.6410    -1.7660     0.2090 ca         1 MEX      -0.122000
     15 C15          2.9030    -2.3500     0.1270 ca         1 MEX      -0.131000
     16 C16          4.0530    -1.5730     0.0250 ca         1 MEX      -0.129000
     17 C17          3.9860    -0.1810    -0.0010 ca         1 MEX      -0.131000
     18 O18          0.2640     2.7940     0.1760 o          1 MEX      -0.628500
     19 H1          -0.9580     0.0380     2.4160 ha         1 MEX       0.149000
     20 H4          -3.4220    -0.5740    -1.8180 ha         1 MEX       0.135000
     21 H6          -3.3320    -0.6520     2.4760 ha         1 MEX       0.155000
     22 HO7         -5.1830    -1.1420    -0.4810 ho         1 MEX       0.429000
     23 HO8         -1.4470     0.0250    -2.8140 ho         1 MEX       0.429000
     24 HN12         2.9130     2.5170     0.0010 hn         1 MEX       0.353500
     25 H14          0.7470    -2.3710     0.2890 ha         1 MEX       0.144000
     26 H15          2.9880    -3.4280     0.1430 ha         1 MEX       0.132000
     27 H16          5.0200    -2.0550    -0.0370 ha         1 MEX       0.133000
     28 H17          4.8790     0.4240    -0.0830 ha         1 MEX       0.138000
@<TRIPOS>BOND
     1     1     2 ar  
     2     1     6 ar  
     3     1    19 1   
     4     2     3 ar  
     5     2     9 1   
     6     3     4 ar  
     7     3     8 1   
     8     4     5 ar  
     9     4    20 1   
    10     5     6 ar  
    11     5     7 1   
    12     6    21 1   
    13     7    22 1   
    14     8    23 1   
    15     9    10 1   
    16     9    13 1   
    17    10    11 ar  
    18    10    14 ar  
    19    11    12 1   
    20    11    17 ar  
    21    12    13 1   
    22    12    24 1   
    23    13    18 2   
    24    14    15 ar  
    25    14    25 1   
    26    15    16 ar  
    27    15    26 1   
    28    16    17 ar  
    29    16    27 1   
    30    17    28 1   
@<TRIPOS>SUBSTRUCTURE
     1 MEX         1 TEMP              0 ****  ****    0 ROOT
