@<TRIPOS>MOLECULE
MEX
   28    30     1     0     0
SMALL
No Charge or Current Charge


@<TRIPOS>ATOM
      1 C1          -1.2140    -0.7440     1.0950 ca         1 MEX      -0.018000
      2 C2          -0.8410     0.0060    -0.0420 ca         1 MEX      -0.028400
      3 C3          -1.8460     0.3600    -0.9810 ca         1 MEX       0.196100
      4 C4          -3.1790    -0.0310    -0.7800 ca         1 MEX      -0.311000
      5 C5          -3.5280    -0.7710     0.3550 ca         1 MEX       0.194100
      6 C6          -2.5510    -1.1280     1.2900 ca         1 MEX      -0.183000
      7 O7          -4.8190    -1.1470     0.5490 oh         1 MEX      -0.527100
      8 O8          -1.5400     1.0180    -2.1350 oh         1 MEX      -0.513100
      9 N9           0.5360     0.4150    -0.2110 n          1 MEX      -0.200200
     10 C10          1.6520    -0.4260     0.1340 ca         1 MEX       0.017600
     11 C11          2.7960     0.3440     0.0150 ca         1 MEX       0.005600
     12 N12          2.3690     1.6150    -0.3690 ns         1 MEX      -0.504600
     13 C13          1.0120     1.7210    -0.4910 c          1 MEX       0.604000
     14 C14          1.7320    -1.7850     0.4810 ca         1 MEX      -0.104000
     15 C15          3.0140    -2.3240     0.7360 ca         1 MEX      -0.113000
     16 C16          4.1760    -1.5180     0.6310 ca         1 MEX      -0.111000
     17 C17          4.0760    -0.1590     0.2590 ca         1 MEX      -0.113000
     18 O18          0.3860     2.7460    -0.7110 o          1 MEX      -0.553000
     19 H1          -0.4780    -1.0000     1.8520 ha         1 MEX       0.131000
     20 H4          -3.9400     0.2320    -1.5100 ha         1 MEX       0.117000
     21 H6          -2.8290    -1.6970     2.1730 ha         1 MEX       0.137000
     22 HO7         -5.3490    -0.8080    -0.2030 ho         1 MEX       0.468000
     23 HO8         -2.3710     1.1570    -2.6340 ho         1 MEX       0.468000
     24 HN12         2.9800     2.4200    -0.4570 hn         1 MEX       0.467000
     25 H14          0.8480    -2.4140     0.5340 ha         1 MEX       0.126000
     26 H15          3.1110    -3.3730     1.0090 ha         1 MEX       0.114000
     27 H16          5.1530    -1.9520     0.8290 ha         1 MEX       0.115000
     28 H17          4.9590     0.4680     0.1650 ha         1 MEX       0.120000
@<TRIPOS>BOND
     1     1     2 ar  
     2     1     6 ar  
     3     1    19 1   
     4     2     3 ar  
     5     2     9 1   
     6     3     4 ar  
     7     3     8 1   
     8     4     5 ar  
     9     4    20 1   
    10     5     6 ar  
    11     5     7 1   
    12     6    21 1   
    13     7    22 1   
    14     8    23 1   
    15     9    10 1   
    16     9    13 1   
    17    10    11 ar  
    18    10    14 ar  
    19    11    12 1   
    20    11    17 ar  
    21    12    13 1   
    22    12    24 1   
    23    13    18 2   
    24    14    15 ar  
    25    14    25 1   
    26    15    16 ar  
    27    15    26 1   
    28    16    17 ar  
    29    16    27 1   
    30    17    28 1   
@<TRIPOS>SUBSTRUCTURE
     1 MEX         1 TEMP              0 ****  ****    0 ROOT
