@<TRIPOS>MOLECULE
MEY
   52    56     1     0     0
SMALL
bcc


@<TRIPOS>ATOM
      1 C1           3.8270     3.3830     1.4600 ca         1 MEY      -0.133000
      2 C2           3.5530     2.1600     2.0980 ca         1 MEY      -0.096000
      3 C3           6.0950     1.0460    -2.1170 ca         1 MEY      -0.157000
      4 C4           4.5210     3.3880     0.2830 ca         1 MEY      -0.103000
      5 C5           3.9650     0.9720     1.5550 ca         1 MEY      -0.152000
      6 C6           5.6750     2.2030    -1.5270 ca         1 MEY      -0.058000
      7 C7           0.5310    -0.2710    -0.6930 ca         1 MEY      -0.124000
      8 C8          -0.7990     0.0510    -0.4380 ca         1 MEY      -0.121000
      9 C9           5.7980    -0.1920    -1.5190 ca         1 MEY      -0.007000
     10 C10          0.0600    -2.6460    -0.6050 ca         1 MEY      -0.101000
     11 C11         -4.7360     0.5210    -0.8080 ca         1 MEY      -0.018000
     12 C12         -4.6420     1.8750     1.6090 ca         1 MEY      -0.269000
     13 C13          4.9560     2.1810    -0.3090 ca         1 MEY      -0.062000
     14 C14          4.6710     0.9410     0.3280 ca         1 MEY       0.041000
     15 C15          0.9610    -1.5950    -0.7820 ca         1 MEY      -0.112300
     16 C16         -1.6800    -0.9960    -0.2700 ca         1 MEY       0.029600
     17 C17         -1.2580    -2.3260    -0.3510 ca         1 MEY       0.003600
     18 C18         -3.8690     0.0950     0.1830 ca         1 MEY      -0.024400
     19 C19         -3.8210     0.7750     1.4040 ca         1 MEY       0.194100
     20 C20         -5.5200     2.3030     0.6180 ca         1 MEY       0.212100
     21 C21          5.1100    -0.2440    -0.3350 ca         1 MEY      -0.297500
     22 C22         -5.5580     1.6100    -0.5950 ca         1 MEY      -0.114600
     23 C23         -3.4800    -2.3340     0.0760 c          1 MEY       0.812500
     24 C24          2.4150    -1.8860    -1.0180 c3         1 MEY       0.255100
     25 N25         -2.3720    -3.1070    -0.1390 ns         1 MEY      -0.455100
     26 N26         -3.0410    -1.0240    -0.0250 n          1 MEY      -0.269200
     27 N27          3.0940    -1.9960     0.2820 n7         1 MEY      -0.811100
     28 O28         -4.6150    -2.6990     0.3040 o          1 MEY      -0.620500
     29 O29          5.2470    -2.8390    -0.6330 o          1 MEY      -0.604300
     30 O30          5.1410    -1.9280     1.7050 o          1 MEY      -0.604300
     31 O31         -2.9660     0.3210     2.3260 oh         1 MEY      -0.472100
     32 O32         -6.2850     3.3650     0.8820 oh         1 MEY      -0.483100
     33 S33          4.7340    -1.8600     0.3110 sy         1 MEY       1.285200
     34 CL34        -6.6480     2.1370    -1.8360 cl         1 MEY      -0.102400
     35 H1           3.4980     4.3110     1.9050 ha         1 MEY       0.137000
     36 H2           3.0150     2.1550     3.0370 ha         1 MEY       0.137000
     37 H3           6.6460     1.0680    -3.0470 ha         1 MEY       0.141000
     38 H4           4.7490     4.3220    -0.2170 ha         1 MEY       0.134000
     39 H5           3.7680     0.0670     2.1090 ha         1 MEY       0.142000
     40 H6           5.8840     3.1600    -1.9880 ha         1 MEY       0.135000
     41 H8          -1.1220     1.0810    -0.3790 ha         1 MEY       0.147000
     42 H9           6.1170    -1.1000    -2.0090 ha         1 MEY       0.163000
     43 H10          0.3840    -3.6760    -0.6730 ha         1 MEY       0.149000
     44 H11         -4.7630    -0.0050    -1.7530 ha         1 MEY       0.164000
     45 H12         -4.6170     2.4120     2.5500 ha         1 MEY       0.156000
     46 H24          2.5380    -2.8230    -1.5600 h1         1 MEY       0.061200
     47 H24A         2.8500    -1.0900    -1.6300 h1         1 MEY       0.061200
     48 HN25        -2.3950    -4.1150    -0.1350 hn         1 MEY       0.358500
     49 HN27         2.6420    -1.4800     1.0280 hn         1 MEY       0.431800
     50 HO31        -2.9950     0.8670     3.1200 ho         1 MEY       0.435000
     51 HO32        -6.8740     3.5670     0.1440 ho         1 MEY       0.447000
     52 H7           1.2480     0.5290    -0.8300 ha         1 MEY       0.135000
@<TRIPOS>BOND
     1     1     2 ar  
     2     1     4 ar  
     3     1    35 1   
     4     2     5 ar  
     5     2    36 1   
     6     3     6 ar  
     7     3     9 ar  
     8     3    37 1   
     9     4    13 ar  
    10     4    38 1   
    11     5    14 ar  
    12     5    39 1   
    13     6    13 ar  
    14     6    40 1   
    15     7     8 ar  
    16     7    15 ar  
    17     7    52 1   
    18     8    16 ar  
    19     8    41 1   
    20     9    21 ar  
    21     9    42 1   
    22    10    15 ar  
    23    10    17 ar  
    24    10    43 1   
    25    11    18 ar  
    26    11    22 ar  
    27    11    44 1   
    28    12    19 ar  
    29    12    20 ar  
    30    12    45 1   
    31    13    14 ar  
    32    14    21 ar  
    33    15    24 1   
    34    16    17 ar  
    35    16    26 1   
    36    17    25 1   
    37    18    19 ar  
    38    18    26 1   
    39    19    31 1   
    40    20    22 ar  
    41    20    32 1   
    42    21    33 1   
    43    22    34 1   
    44    23    25 1   
    45    23    26 1   
    46    23    28 2   
    47    24    27 1   
    48    24    46 1   
    49    24    47 1   
    50    25    48 1   
    51    27    33 1   
    52    27    49 1   
    53    29    33 2   
    54    30    33 2   
    55    31    50 1   
    56    32    51 1   
@<TRIPOS>SUBSTRUCTURE
     1 MEY         1 TEMP              0 ****  ****    0 ROOT
