@<TRIPOS>MOLECULE
MEY
   52    56     1     0     0
SMALL
No Charge or Current Charge


@<TRIPOS>ATOM
      1 C1           5.4530     1.5670     3.3550 ca         1 MEY      -0.115000
      2 C2           4.8410     0.3460     3.0440 ca         1 MEY      -0.078000
      3 C3           6.4470     2.3280    -1.3500 ca         1 MEY      -0.139000
      4 C4           6.0010     2.3510     2.3300 ca         1 MEY      -0.085000
      5 C5           4.7790    -0.0970     1.7120 ca         1 MEY      -0.134000
      6 C6           6.4940     2.7310    -0.0110 ca         1 MEY      -0.040000
      7 C7          -0.3050    -0.8670    -1.8590 ca         1 MEY      -0.106000
      8 C8          -1.6010    -0.4960    -1.4330 ca         1 MEY      -0.103000
      9 C9           5.8530     1.1070    -1.6980 ca         1 MEY       0.011000
     10 C10          0.1900    -1.8420     0.3400 ca         1 MEY      -0.083000
     11 C11         -5.6170    -0.3250     0.3840 ca         1 MEY       0.000000
     12 C12         -5.3290     2.1080    -0.9810 ca         1 MEY      -0.251000
     13 C13          5.9420     1.9150     0.9920 ca         1 MEY      -0.062000
     14 C14          5.3330     0.6750     0.6590 ca         1 MEY       0.041000
     15 C15          0.5940    -1.5320    -0.9800 ca         1 MEY      -0.112300
     16 C16         -1.9630    -0.7800    -0.1070 ca         1 MEY       0.029600
     17 C17         -1.0940    -1.4560     0.7320 ca         1 MEY       0.003600
     18 C18         -4.3200     0.1740     0.1350 ca         1 MEY      -0.024400
     19 C19         -4.1890     1.4220    -0.5330 ca         1 MEY       0.194100
     20 C20         -6.6050     1.5810    -0.7600 ca         1 MEY       0.212100
     21 C21          5.2950     0.2660    -0.7080 ca         1 MEY      -0.297500
     22 C22         -6.7530     0.3660    -0.0680 ca         1 MEY      -0.023000
     23 C23         -3.0570    -1.1550     1.9090 c          1 MEY       0.603000
     24 C24          1.9820    -1.9300    -1.4580 c3         1 MEY       0.255100
     25 N25         -1.7880    -1.6580     1.9260 ns         1 MEY      -0.501600
     26 N26         -3.1910    -0.5910     0.6210 n          1 MEY      -0.202200
     27 N27          2.9860    -1.0670    -0.8310 n7         1 MEY      -0.866300
     28 O28         -3.8650    -1.1750     2.8240 o          1 MEY      -0.545000
     29 O29          4.5970    -1.3640    -2.7310 o          1 MEY      -0.533500
     30 O30          5.0680    -2.3910    -0.4260 o          1 MEY      -0.533500
     31 O31         -2.9770     2.0350    -0.6750 oh         1 MEY      -0.511100
     32 O32         -7.6960     2.2680    -1.2040 oh         1 MEY      -0.522100
     33 S33          4.5750    -1.2980    -1.2680 sy         1 MEY       1.143600
     34 Cl34        -8.3550    -0.3080     0.2400 cl         1 MEY      -0.194000
     35 H1           5.4990     1.9080     4.3870 ha         1 MEY       0.119000
     36 H2           4.4100    -0.2610     3.8380 ha         1 MEY       0.119000
     37 H3           6.8740     2.9630    -2.1230 ha         1 MEY       0.123000
     38 H4           6.4710     3.3000     2.5770 ha         1 MEY       0.116000
     39 H5           4.2850    -1.0430     1.5280 ha         1 MEY       0.124000
     40 H6           6.9590     3.6800     0.2470 ha         1 MEY       0.117000
     41 H8          -2.2940    -0.0200    -2.1210 ha         1 MEY       0.129000
     42 H9           5.8390     0.8220    -2.7490 ha         1 MEY       0.145000
     43 H10          0.8530    -2.3670     1.0240 ha         1 MEY       0.131000
     44 H11         -5.7470    -1.2690     0.9070 ha         1 MEY       0.146000
     45 H12         -5.2340     3.0650    -1.4890 ha         1 MEY       0.138000
     46 H24          2.1600    -2.9830    -1.1960 h1         1 MEY       0.061200
     47 H24A         2.0220    -1.8560    -2.5550 h1         1 MEY       0.061200
     48 HN25        -1.4020    -2.1200     2.7440 hn         1 MEY       0.472000
     49 HN27         2.8270    -0.1020    -1.1110 hn         1 MEY       0.487000
     50 HO31        -3.1180     2.9050    -1.1030 ho         1 MEY       0.474000
     51 HO32        -8.4930     1.7520    -0.9520 ho         1 MEY       0.486000
     52 H7          -0.0010    -0.6470    -2.8800 ha         1 MEY       0.117000
@<TRIPOS>BOND
     1     1     2 ar  
     2     1     4 ar  
     3     1    35 1   
     4     2     5 ar  
     5     2    36 1   
     6     3     6 ar  
     7     3     9 ar  
     8     3    37 1   
     9     4    13 ar  
    10     4    38 1   
    11     5    14 ar  
    12     5    39 1   
    13     6    13 ar  
    14     6    40 1   
    15     7     8 ar  
    16     7    15 ar  
    17     7    52 1   
    18     8    16 ar  
    19     8    41 1   
    20     9    21 ar  
    21     9    42 1   
    22    10    15 ar  
    23    10    17 ar  
    24    10    43 1   
    25    11    18 ar  
    26    11    22 ar  
    27    11    44 1   
    28    12    19 ar  
    29    12    20 ar  
    30    12    45 1   
    31    13    14 ar  
    32    14    21 ar  
    33    15    24 1   
    34    16    17 ar  
    35    16    26 1   
    36    17    25 1   
    37    18    19 ar  
    38    18    26 1   
    39    19    31 1   
    40    20    22 ar  
    41    20    32 1   
    42    21    33 1   
    43    22    34 1   
    44    23    25 1   
    45    23    26 1   
    46    23    28 2   
    47    24    27 1   
    48    24    46 1   
    49    24    47 1   
    50    25    48 1   
    51    27    33 1   
    52    27    49 1   
    53    29    33 2   
    54    30    33 2   
    55    31    50 1   
    56    32    51 1   
@<TRIPOS>SUBSTRUCTURE
     1 MEY         1 TEMP              0 ****  ****    0 ROOT
