@<TRIPOS>MOLECULE
MEZ
   13    12     1     0     0
SMALL
abcg2


@<TRIPOS>ATOM
      1 O4          28.6880    28.7680    73.1080 o          1 MEZ      -0.769500
      2 C5          28.2890    29.8900    73.4850 c          1 MEZ       0.701200
      3 O3          27.2580    30.4740    73.0920 o          1 MEZ      -0.769500
      4 C3          29.1720    30.5990    74.5230 ce         1 MEZ      -0.213400
      5 C4          30.3680    29.8340    75.0020 c3         1 MEZ      -0.017900
      6 C2          28.8240    31.8230    74.9420 cf         1 MEZ      -0.281200
      7 C1          29.4730    32.7420    75.9550 c          1 MEZ       0.700200
      8 O1          28.6980    33.5970    76.4390 o          1 MEZ      -0.773500
      9 O2          30.6860    32.6130    76.2280 o          1 MEZ      -0.773500
     10 H41         31.0510    29.6190    74.1770 hc         1 MEZ       0.011033
     11 H42         30.9180    30.3770    75.7630 hc         1 MEZ       0.011033
     12 H43         30.0710    28.8640    75.4060 hc         1 MEZ       0.011033
     13 H2          27.9070    32.2210    74.5180 ha         1 MEZ       0.163000
@<TRIPOS>BOND
     1     1     2 1   
     2     2     3 1   
     3     2     4 1   
     4     4     5 1   
     5     4     6 2   
     6     5    10 1   
     7     5    11 1   
     8     5    12 1   
     9     6     7 1   
    10     6    13 1   
    11     7     8 1   
    12     7     9 1   
@<TRIPOS>SUBSTRUCTURE
     1 MEZ         1 TEMP              0 ****  ****    0 ROOT
