@<TRIPOS>MOLECULE
MEZ
   13    12     1     0     0
SMALL
No Charge or Current Charge


@<TRIPOS>ATOM
      1 O4          28.4560    28.6410    73.2800 o          1 MEZ      -0.769500
      2 C5          28.1700    29.7800    73.6180 c          1 MEZ       0.701200
      3 O3          27.1420    30.3190    73.2360 o          1 MEZ      -0.769500
      4 C3          29.1080    30.5580    74.5350 ce         1 MEZ      -0.213400
      5 C4          30.3890    29.8490    74.9930 c3         1 MEZ      -0.017900
      6 C2          28.8040    31.8510    74.9300 cf         1 MEZ      -0.281200
      7 C1          29.5640    32.7920    75.8130 c          1 MEZ       0.700200
      8 O1          29.0620    33.8880    76.0000 o          1 MEZ      -0.773500
      9 O2          30.6280    32.4640    76.3100 o          1 MEZ      -0.773500
     10 H41         31.2800    30.4000    74.6700 hc         1 MEZ       0.011033
     11 H42         30.4220    29.7650    76.0860 hc         1 MEZ       0.011033
     12 H43         30.5010    28.8310    74.6050 hc         1 MEZ       0.011033
     13 H2          27.8760    32.2830    74.5620 ha         1 MEZ       0.163000
@<TRIPOS>BOND
     1     1     2 1   
     2     2     3 1   
     3     2     4 1   
     4     4     5 1   
     5     4     6 2   
     6     5    10 1   
     7     5    11 1   
     8     5    12 1   
     9     6     7 1   
    10     6    13 1   
    11     7     8 1   
    12     7     9 1   
@<TRIPOS>SUBSTRUCTURE
     1 MEZ         1 TEMP              0 ****  ****    0 ROOT
