@<TRIPOS>MOLECULE
MF0
   33    34     1     0     0
SMALL
abcg2


@<TRIPOS>ATOM
      1 N1           7.1350     2.2770    18.2240 nb         1 MF0      -0.646000
      2 C4           7.7750     1.7440    19.2660 ca         1 MF0       0.336900
      3 C5           5.9600     1.7440    17.8780 ca         1 MF0       0.319900
      4 C6           5.3890     0.6750    18.5520 ca         1 MF0      -0.145000
      5 C7           6.0360     0.1150    19.6490 ca         1 MF0      -0.079300
      6 C8           5.4400    -1.0320    20.4090 c3         1 MF0      -0.051800
      7 C10         11.8130     0.5090    22.4410 ca         1 MF0       0.357900
      8 C13         11.1520    -1.7790    22.3310 ca         1 MF0      -0.065000
      9 N2          13.0600     0.2270    22.0620 nb         1 MF0      -0.652000
     10 C1           9.4150    -0.0900    23.0440 c3         1 MF0      -0.085400
     11 C11         13.3810    -1.0440    21.8160 ca         1 MF0       0.353900
     12 C2           8.7680     0.8060    21.9830 c          1 MF0       0.603100
     13 C9          10.8160    -0.4560    22.5960 ca         1 MF0      -0.133300
     14 C12         12.4510    -2.0660    21.9410 ca         1 MF0       0.062000
     15 C            9.3990     0.5910    24.4150 c3         1 MF0      -0.077100
     16 O            8.9690     2.0110    21.9360 o          1 MF0      -0.572100
     17 C3           7.2690     0.6770    20.0090 ca         1 MF0      -0.085000
     18 CL          12.9250    -3.7110    21.6040 cl         1 MF0      -0.191000
     19 H1           8.7280     2.1780    19.5310 h4         1 MF0       0.044100
     20 H2           5.4560     2.1880    17.0260 h4         1 MF0       0.023100
     21 H3           4.4350     0.2780    18.2280 ha         1 MF0       0.122000
     22 H4           6.0470    -1.9360    20.3000 hc         1 MF0       0.046700
     23 H5           5.3880    -0.8080    21.4770 hc         1 MF0       0.046700
     24 H6           4.4380    -1.2530    20.0470 hc         1 MF0       0.046700
     25 H8          10.4180    -2.5680    22.4300 ha         1 MF0       0.129000
     26 H10          8.8430    -1.0160    23.1060 hc         1 MF0       0.054700
     27 H11         14.3990    -1.2570    21.5130 h4         1 MF0       0.038100
     28 H12          9.8610    -0.0640    25.1540 hc         1 MF0       0.051033
     29 H13          9.9470     1.5320    24.3930 hc         1 MF0       0.051033
     30 H14          8.3730     0.7960    24.7240 hc         1 MF0       0.051033
     31 N            7.9800     0.1340    21.0980 ns         1 MF0      -0.150000
     32 H7          11.5910     1.5530    22.6270 h4         1 MF0       0.043100
     33 H9           7.8270    -0.8440    21.2900 hn         1 MF0       0.152000
@<TRIPOS>BOND
     1     1     2 ar  
     2     1     3 ar  
     3     2    17 ar  
     4     2    19 1   
     5     3     4 ar  
     6     3    20 1   
     7     4     5 ar  
     8     4    21 1   
     9     5     6 1   
    10     5    17 ar  
    11     6    22 1   
    12     6    23 1   
    13     6    24 1   
    14     7     9 ar  
    15     7    13 ar  
    16     7    32 1   
    17     8    13 ar  
    18     8    14 ar  
    19     8    25 1   
    20     9    11 ar  
    21    10    12 1   
    22    10    13 1   
    23    10    15 1   
    24    10    26 1   
    25    11    14 ar  
    26    11    27 1   
    27    12    16 2   
    28    12    31 1   
    29    14    18 1   
    30    15    28 1   
    31    15    29 1   
    32    15    30 1   
    33    17    31 1   
    34    31    33 1   
@<TRIPOS>SUBSTRUCTURE
     1 MF0         1 TEMP              0 ****  ****    0 ROOT
