@<TRIPOS>MOLECULE
MF0
   33    34     1     0     0
SMALL
No Charge or Current Charge


@<TRIPOS>ATOM
      1 N1           6.5530     2.6000    18.4070 nb         1 MF0      -0.646000
      2 C4           7.2990     2.1370    19.4390 ca         1 MF0       0.336900
      3 C5           5.5510     1.8180    17.9530 ca         1 MF0       0.319900
      4 C6           5.2560     0.5610    18.5040 ca         1 MF0      -0.145000
      5 C7           6.0250     0.0730    19.5760 ca         1 MF0      -0.079300
      6 C8           5.7130    -1.2920    20.1820 c3         1 MF0      -0.051800
      7 C10         12.0610     0.3720    22.6260 ca         1 MF0       0.357900
      8 C13         11.1360    -1.8540    22.3510 ca         1 MF0      -0.065000
      9 N2          13.3190    -0.0520    22.3570 nb         1 MF0      -0.652000
     10 C1           9.5280     0.0410    22.9440 c3         1 MF0      -0.085400
     11 C11         13.4950    -1.3700    22.0860 ca         1 MF0       0.353900
     12 C2           8.9980     0.9090    21.7780 c          1 MF0       0.603100
     13 C9          10.9360    -0.4880    22.6400 ca         1 MF0      -0.133300
     14 C12         12.4370    -2.3000    22.0710 ca         1 MF0       0.062000
     15 C            9.4650     0.8030    24.2910 c3         1 MF0      -0.077100
     16 O            9.5550     1.9470    21.4410 o          1 MF0      -0.572100
     17 C3           7.0800     0.8800    20.0600 ca         1 MF0      -0.085000
     18 Cl          12.7320    -4.0000    21.7080 cl         1 MF0      -0.191000
     19 H1           8.0850     2.8120    19.7680 h4         1 MF0       0.044100
     20 H2           4.9650     2.2110    17.1230 h4         1 MF0       0.023100
     21 H3           4.4350    -0.0210    18.0940 ha         1 MF0       0.122000
     22 H4           6.5750    -1.9650    20.1060 hc         1 MF0       0.046700
     23 H5           5.4450    -1.2020    21.2410 hc         1 MF0       0.046700
     24 H6           4.8730    -1.7800    19.6720 hc         1 MF0       0.046700
     25 H8          10.3050    -2.5560    22.3450 ha         1 MF0       0.129000
     26 H10          8.8520    -0.8170    23.0480 hc         1 MF0       0.054700
     27 H11         14.5140    -1.6890    21.8720 h4         1 MF0       0.038100
     28 H12          9.8300     0.1700    25.1090 hc         1 MF0       0.051033
     29 H13         10.0720     1.7160    24.2660 hc         1 MF0       0.051033
     30 H14          8.4320     1.0910    24.5220 hc         1 MF0       0.051033
     31 N            7.8680     0.3990    21.1490 ns         1 MF0      -0.150000
     32 H7          11.9520     1.4360    22.8350 h4         1 MF0       0.043100
     33 H9           7.5410    -0.4770    21.5350 hn         1 MF0       0.152000
@<TRIPOS>BOND
     1     1     2 ar  
     2     1     3 ar  
     3     2    17 ar  
     4     2    19 1   
     5     3     4 ar  
     6     3    20 1   
     7     4     5 ar  
     8     4    21 1   
     9     5     6 1   
    10     5    17 ar  
    11     6    22 1   
    12     6    23 1   
    13     6    24 1   
    14     7     9 ar  
    15     7    13 ar  
    16     7    32 1   
    17     8    13 ar  
    18     8    14 ar  
    19     8    25 1   
    20     9    11 ar  
    21    10    12 1   
    22    10    13 1   
    23    10    15 1   
    24    10    26 1   
    25    11    14 ar  
    26    11    27 1   
    27    12    16 2   
    28    12    31 1   
    29    14    18 1   
    30    15    28 1   
    31    15    29 1   
    32    15    30 1   
    33    17    31 1   
    34    31    33 1   
@<TRIPOS>SUBSTRUCTURE
     1 MF0         1 TEMP              0 ****  ****    0 ROOT
