@<TRIPOS>MOLECULE
MF1
   79    80     1     0     0
SMALL
No Charge or Current Charge


@<TRIPOS>ATOM
      1 CAA         17.9820     0.2220     0.7040 c3         1 MF1      -0.088100
      2 CAB         16.7220    -0.1480    -0.1020 c3         1 MF1      -0.075400
      3 CAC         15.4090     0.1990     0.6340 c3         1 MF1      -0.075400
      4 CAD         14.1460    -0.1720    -0.1740 c3         1 MF1      -0.074400
      5 CAE         12.8340     0.1750     0.5630 c3         1 MF1      -0.074400
      6 CAF         11.5710    -0.1950    -0.2450 c3         1 MF1      -0.074400
      7 CAG         10.2590     0.1520     0.4910 c3         1 MF1      -0.074400
      8 CAH          8.9960    -0.2180    -0.3170 c3         1 MF1      -0.073400
      9 CAI          7.6840     0.1290     0.4200 c3         1 MF1      -0.075400
     10 CAJ          6.4210    -0.2410    -0.3880 c3         1 MF1      -0.073400
     11 CAK          5.1080     0.1060     0.3480 c3         1 MF1      -0.075400
     12 CAL          3.8450    -0.2640    -0.4600 c3         1 MF1      -0.074400
     13 CAM          2.5330     0.0840     0.2760 c3         1 MF1      -0.075400
     14 CAN          1.2700    -0.2850    -0.5320 c3         1 MF1      -0.075400
     15 CAO         -0.0420     0.0630     0.2040 c3         1 MF1      -0.075400
     16 CAP         -1.3050    -0.3060    -0.6040 c3         1 MF1      -0.073400
     17 CAQ         -2.6180     0.0440     0.1320 c3         1 MF1      -0.088400
     18 CAR         -3.8770    -0.3230    -0.6800 c3         1 MF1       0.182600
     19 CAT         -6.3240    -0.0870    -0.5600 c3         1 MF1      -0.083400
     20 CAU         -7.3900     0.5660     0.3370 ca         1 MF1       0.046700
     21 CAV         -7.3260     0.3040     1.7230 ca         1 MF1      -0.084000
     22 CAW         -8.2400     0.8810     2.6170 ca         1 MF1      -0.091000
     23 CAX         -9.2400     1.7340     2.1380 ca         1 MF1      -0.174000
     24 CAY         -9.3390     2.0040     0.7620 ca         1 MF1      -0.047000
     25 CAZ        -10.3610     2.8590     0.3090 ca         1 MF1      -0.122000
     26 CBA        -10.4950     3.1420    -1.0570 ca         1 MF1      -0.139000
     27 CBB         -9.6100     2.5640    -1.9760 ca         1 MF1      -0.174000
     28 CBC         -8.5850     1.7080    -1.5340 ca         1 MF1      -0.046000
     29 CBD         -8.4240     1.4200    -0.1550 ca         1 MF1      -0.035000
     30 OAS         -5.0270     0.0570     0.1010 os         1 MF1      -0.472000
     31 PBE         -6.8220    -1.8560    -1.0440 p5         1 MF1       1.274500
     32 H1          18.0090     1.2980     0.9100 hc         1 MF1       0.029367
     33 H2          18.0030    -0.3150     1.6600 hc         1 MF1       0.029367
     34 H3          18.8860    -0.0430     0.1420 hc         1 MF1       0.029367
     35 H4          16.7480     0.3760    -1.0650 hc         1 MF1       0.035700
     36 H5          16.7420    -1.2230    -0.3220 hc         1 MF1       0.035700
     37 H6          15.3870    -0.3260     1.5980 hc         1 MF1       0.036700
     38 H7          15.3930     1.2740     0.8540 hc         1 MF1       0.036700
     39 H8          14.1680     0.3530    -1.1370 hc         1 MF1       0.036700
     40 H9          14.1620    -1.2470    -0.3940 hc         1 MF1       0.036700
     41 H10         12.8120    -0.3500     1.5260 hc         1 MF1       0.036700
     42 H11         12.8180     1.2500     0.7830 hc         1 MF1       0.036700
     43 H12         11.5930     0.3300    -1.2090 hc         1 MF1       0.036700
     44 H13         11.5870    -1.2700    -0.4650 hc         1 MF1       0.036700
     45 H14         10.2370    -0.3730     1.4550 hc         1 MF1       0.036200
     46 H15         10.2430     1.2270     0.7110 hc         1 MF1       0.036200
     47 H16          9.0180     0.3060    -1.2800 hc         1 MF1       0.036200
     48 H17          9.0120    -1.2930    -0.5370 hc         1 MF1       0.036200
     49 H18          7.6610    -0.3960     1.3830 hc         1 MF1       0.035700
     50 H19          7.6680     1.2040     0.6400 hc         1 MF1       0.035700
     51 H20          6.4430     0.2840    -1.3520 hc         1 MF1       0.036200
     52 H21          6.4360    -1.3160    -0.6090 hc         1 MF1       0.036200
     53 H22          5.0860    -0.4190     1.3110 hc         1 MF1       0.035200
     54 H23          5.0930     1.1810     0.5690 hc         1 MF1       0.035200
     55 H24          3.8680     0.2610    -1.4230 hc         1 MF1       0.035700
     56 H25          3.8610    -1.3380    -0.6800 hc         1 MF1       0.035700
     57 H26          2.5110    -0.4410     1.2400 hc         1 MF1       0.033200
     58 H27          2.5180     1.1590     0.4970 hc         1 MF1       0.033200
     59 H28          1.2930     0.2400    -1.4950 hc         1 MF1       0.035200
     60 H29          1.2850    -1.3600    -0.7520 hc         1 MF1       0.035200
     61 H30         -0.0650    -0.4620     1.1680 hc         1 MF1       0.030200
     62 H31         -0.0570     1.1380     0.4250 hc         1 MF1       0.030200
     63 H32         -1.2830     0.2190    -1.5670 hc         1 MF1       0.037200
     64 H33         -1.2920    -1.3810    -0.8240 hc         1 MF1       0.037200
     65 H34         -2.6440    -0.4840     1.0930 hc         1 MF1       0.030200
     66 H35         -2.6330     1.1190     0.3500 hc         1 MF1       0.030200
     67 H36         -3.8620     0.2110    -1.6390 h1         1 MF1       0.035700
     68 H37         -3.8730    -1.4020    -0.8790 h1         1 MF1       0.035700
     69 H38         -6.2630     0.4520    -1.5100 h1         1 MF1       0.011700
     70 H39         -6.5520    -0.3540     2.1110 ha         1 MF1       0.193000
     71 H40         -8.1680     0.6690     3.6810 ha         1 MF1       0.086000
     72 H41         -9.9430     2.1810     2.8370 ha         1 MF1       0.072000
     73 H42        -11.0560     3.3050     1.0170 ha         1 MF1       0.078000
     74 H43        -11.2870     3.8020    -1.4020 ha         1 MF1       0.073000
     75 H44         -9.7180     2.7740    -3.0380 ha         1 MF1       0.081000
     76 H45         -7.9380     1.2730    -2.2880 ha         1 MF1       0.128000
     77 OBF         -8.2740    -1.8950    -1.3880 o          1 MF1      -0.916833
     78 OBG         -6.0320    -2.2860    -2.2370 o          1 MF1      -0.916833
     79 OBH         -6.5570    -2.7890     0.0930 o          1 MF1      -0.916833
@<TRIPOS>BOND
     1     1     2 1   
     2     1    32 1   
     3     1    33 1   
     4     1    34 1   
     5     2     3 1   
     6     2    35 1   
     7     2    36 1   
     8     3     4 1   
     9     3    37 1   
    10     3    38 1   
    11     4     5 1   
    12     4    39 1   
    13     4    40 1   
    14     5     6 1   
    15     5    41 1   
    16     5    42 1   
    17     6     7 1   
    18     6    43 1   
    19     6    44 1   
    20     7     8 1   
    21     7    45 1   
    22     7    46 1   
    23     8     9 1   
    24     8    47 1   
    25     8    48 1   
    26     9    10 1   
    27     9    49 1   
    28     9    50 1   
    29    10    11 1   
    30    10    51 1   
    31    10    52 1   
    32    11    12 1   
    33    11    53 1   
    34    11    54 1   
    35    12    13 1   
    36    12    55 1   
    37    12    56 1   
    38    13    14 1   
    39    13    57 1   
    40    13    58 1   
    41    14    15 1   
    42    14    59 1   
    43    14    60 1   
    44    15    16 1   
    45    15    61 1   
    46    15    62 1   
    47    16    17 1   
    48    16    63 1   
    49    16    64 1   
    50    17    18 1   
    51    17    65 1   
    52    17    66 1   
    53    18    30 1   
    54    18    67 1   
    55    18    68 1   
    56    19    20 1   
    57    19    30 1   
    58    19    31 1   
    59    19    69 1   
    60    20    21 ar  
    61    20    29 ar  
    62    21    22 ar  
    63    21    70 1   
    64    22    23 ar  
    65    22    71 1   
    66    23    24 ar  
    67    23    72 1   
    68    24    25 ar  
    69    24    29 ar  
    70    25    26 ar  
    71    25    73 1   
    72    26    27 ar  
    73    26    74 1   
    74    27    28 ar  
    75    27    75 1   
    76    28    29 ar  
    77    28    76 1   
    78    31    77 1   
    79    31    78 1   
    80    31    79 1   
@<TRIPOS>SUBSTRUCTURE
     1 MF1         1 TEMP              0 ****  ****    0 ROOT
