@<TRIPOS>MOLECULE
MF1
   79    80     1     0     0
SMALL
abcg2


@<TRIPOS>ATOM
      1 CAA         17.3270     1.0910     0.7670 c3         1 MF1      -0.088100
      2 CAB         16.1720     0.3800     0.0760 c3         1 MF1      -0.075400
      3 CAC         14.8080     0.8550     0.5610 c3         1 MF1      -0.075400
      4 CAD         13.6420     0.1510    -0.1210 c3         1 MF1      -0.074400
      5 CAE         12.2830     0.6300     0.3720 c3         1 MF1      -0.074400
      6 CAF         11.1090    -0.0710    -0.3010 c3         1 MF1      -0.074400
      7 CAG          9.7560     0.4140     0.2050 c3         1 MF1      -0.074400
      8 CAH          8.5710    -0.2820    -0.4500 c3         1 MF1      -0.073400
      9 CAI          7.2290     0.2100     0.0770 c3         1 MF1      -0.075400
     10 CAJ          6.0280    -0.4800    -0.5550 c3         1 MF1      -0.073400
     11 CAK          4.7000     0.0180     0.0010 c3         1 MF1      -0.075400
     12 CAL          3.4810    -0.6670    -0.6040 c3         1 MF1      -0.074400
     13 CAM          2.1700    -0.1680    -0.0110 c3         1 MF1      -0.075400
     14 CAN          0.9350    -0.8480    -0.5890 c3         1 MF1      -0.075400
     15 CAO         -0.3610    -0.3590     0.0450 c3         1 MF1      -0.075400
     16 CAP         -1.6070    -1.0290    -0.5220 c3         1 MF1      -0.073400
     17 CAQ         -2.8880    -0.5770     0.1670 c3         1 MF1      -0.088400
     18 CAR         -4.1220    -1.2200    -0.4390 c3         1 MF1       0.182600
     19 CAT         -6.5010    -0.8570    -0.3880 c3         1 MF1      -0.083400
     20 CAU         -7.3500     0.1850     0.3040 ca         1 MF1       0.046700
     21 CAV         -8.3590    -0.1630     1.1670 ca         1 MF1      -0.084000
     22 CAW         -9.1420     0.8080     1.8240 ca         1 MF1      -0.091000
     23 CAX         -8.9120     2.1390     1.6210 ca         1 MF1      -0.174000
     24 CAY         -7.8700     2.5540     0.7590 ca         1 MF1      -0.047000
     25 CAZ         -7.6080     3.9290     0.5500 ca         1 MF1      -0.122000
     26 CBA         -6.5910     4.3350    -0.2670 ca         1 MF1      -0.139000
     27 CBB         -5.7910     3.3720    -0.9150 ca         1 MF1      -0.174000
     28 CBC         -6.0250     2.0350    -0.7350 ca         1 MF1      -0.046000
     29 CBD         -7.0740     1.5750     0.1020 ca         1 MF1      -0.035000
     30 OAS         -5.2510    -0.8350     0.3030 os         1 MF1      -0.472000
     31 PBE         -7.2370    -2.5770    -0.5850 p5         1 MF1       1.274500
     32 H1          17.2860     2.1680     0.5940 hc         1 MF1       0.029367
     33 H2          17.2990     0.9310     1.8460 hc         1 MF1       0.029367
     34 H3          18.2920     0.7360     0.4050 hc         1 MF1       0.029367
     35 H4          16.2430     0.5290    -1.0060 hc         1 MF1       0.035700
     36 H5          16.2560    -0.7000     0.2380 hc         1 MF1       0.035700
     37 H6          14.7370     0.7070     1.6440 hc         1 MF1       0.036700
     38 H7          14.7230     1.9360     0.4000 hc         1 MF1       0.036700
     39 H8          13.7100     0.3010    -1.2040 hc         1 MF1       0.036700
     40 H9          13.7260    -0.9300     0.0390 hc         1 MF1       0.036700
     41 H10         12.2180     0.4820     1.4560 hc         1 MF1       0.036700
     42 H11         12.1990     1.7100     0.2100 hc         1 MF1       0.036700
     43 H12         11.1680     0.0780    -1.3850 hc         1 MF1       0.036700
     44 H13         11.1910    -1.1520    -0.1400 hc         1 MF1       0.036700
     45 H14          9.7040     0.2700     1.2900 hc         1 MF1       0.036200
     46 H15          9.6760     1.4950     0.0430 hc         1 MF1       0.036200
     47 H16          8.6150    -0.1330    -1.5350 hc         1 MF1       0.036200
     48 H17          8.6500    -1.3630    -0.2900 hc         1 MF1       0.036200
     49 H18          7.1940     0.0680     1.1630 hc         1 MF1       0.035700
     50 H19          7.1520     1.2910    -0.0850 hc         1 MF1       0.035700
     51 H20          6.0500    -0.3310    -1.6410 hc         1 MF1       0.036200
     52 H21          6.1050    -1.5620    -0.3980 hc         1 MF1       0.036200
     53 H22          4.6890    -0.1250     1.0880 hc         1 MF1       0.035200
     54 H23          4.6240     1.0990    -0.1590 hc         1 MF1       0.035200
     55 H24          3.4760    -0.5140    -1.6890 hc         1 MF1       0.035700
     56 H25          3.5600    -1.7490    -0.4520 hc         1 MF1       0.035700
     57 H26          2.1870    -0.3160     1.0740 hc         1 MF1       0.033200
     58 H27          2.0920     0.9140    -0.1640 hc         1 MF1       0.033200
     59 H28          0.8990    -0.6830    -1.6710 hc         1 MF1       0.035200
     60 H29          1.0190    -1.9320    -0.4510 hc         1 MF1       0.035200
     61 H30         -0.3190    -0.5310     1.1260 hc         1 MF1       0.030200
     62 H31         -0.4420     0.7260    -0.0850 hc         1 MF1       0.030200
     63 H32         -1.6730    -0.8230    -1.5960 hc         1 MF1       0.037200
     64 H33         -1.5090    -2.1160    -0.4290 hc         1 MF1       0.037200
     65 H34         -2.8300    -0.8230     1.2320 hc         1 MF1       0.030200
     66 H35         -2.9780     0.5130     0.1030 hc         1 MF1       0.030200
     67 H36         -4.2200    -0.9000    -1.4880 h1         1 MF1       0.035700
     68 H37         -4.0120    -2.3090    -0.4640 h1         1 MF1       0.035700
     69 H38         -6.3330    -0.5090    -1.4220 h1         1 MF1       0.011700
     70 H39         -8.5430    -1.2120     1.3560 ha         1 MF1       0.193000
     71 H40         -9.9330     0.4900     2.4910 ha         1 MF1       0.086000
     72 H41         -9.5140     2.8890     2.1200 ha         1 MF1       0.072000
     73 H42         -8.2300     4.6590     1.0560 ha         1 MF1       0.078000
     74 H43         -6.3960     5.3890    -0.4190 ha         1 MF1       0.073000
     75 H44         -4.9820     3.6940    -1.5580 ha         1 MF1       0.081000
     76 H45         -5.3920     1.3250    -1.2480 ha         1 MF1       0.128000
     77 OBF         -8.5350    -2.3150    -1.3570 o          1 MF1      -0.916833
     78 OBG         -6.1800    -3.3360    -1.3960 o          1 MF1      -0.916833
     79 OBH         -7.4440    -3.1450     0.8260 o          1 MF1      -0.916833
@<TRIPOS>BOND
     1     1     2 1   
     2     1    32 1   
     3     1    33 1   
     4     1    34 1   
     5     2     3 1   
     6     2    35 1   
     7     2    36 1   
     8     3     4 1   
     9     3    37 1   
    10     3    38 1   
    11     4     5 1   
    12     4    39 1   
    13     4    40 1   
    14     5     6 1   
    15     5    41 1   
    16     5    42 1   
    17     6     7 1   
    18     6    43 1   
    19     6    44 1   
    20     7     8 1   
    21     7    45 1   
    22     7    46 1   
    23     8     9 1   
    24     8    47 1   
    25     8    48 1   
    26     9    10 1   
    27     9    49 1   
    28     9    50 1   
    29    10    11 1   
    30    10    51 1   
    31    10    52 1   
    32    11    12 1   
    33    11    53 1   
    34    11    54 1   
    35    12    13 1   
    36    12    55 1   
    37    12    56 1   
    38    13    14 1   
    39    13    57 1   
    40    13    58 1   
    41    14    15 1   
    42    14    59 1   
    43    14    60 1   
    44    15    16 1   
    45    15    61 1   
    46    15    62 1   
    47    16    17 1   
    48    16    63 1   
    49    16    64 1   
    50    17    18 1   
    51    17    65 1   
    52    17    66 1   
    53    18    30 1   
    54    18    67 1   
    55    18    68 1   
    56    19    20 1   
    57    19    30 1   
    58    19    31 1   
    59    19    69 1   
    60    20    21 ar  
    61    20    29 ar  
    62    21    22 ar  
    63    21    70 1   
    64    22    23 ar  
    65    22    71 1   
    66    23    24 ar  
    67    23    72 1   
    68    24    25 ar  
    69    24    29 ar  
    70    25    26 ar  
    71    25    73 1   
    72    26    27 ar  
    73    26    74 1   
    74    27    28 ar  
    75    27    75 1   
    76    28    29 ar  
    77    28    76 1   
    78    31    77 1   
    79    31    78 1   
    80    31    79 1   
@<TRIPOS>SUBSTRUCTURE
     1 MF1         1 TEMP              0 ****  ****    0 ROOT
