@<TRIPOS>MOLECULE
MF2
   49    49     1     0     0
SMALL
bcc


@<TRIPOS>ATOM
      1 C2           1.0030    -0.4370     3.9470 c6         1 MF2       0.132800
      2 C3           1.5270     0.2240     5.2130 c6         1 MF2       0.147600
      3 O4           0.5920     0.0930     6.2660 os         1 MF2      -0.413600
      4 C7          -1.5960     0.4220     7.1220 c3         1 MF2      -0.088100
      5 C8           2.8370    -0.3840     5.6700 c3         1 MF2      -0.088100
      6 C10         -0.0980     0.1230     1.1040 c3         1 MF2      -0.077400
      7 C11         -0.6710    -0.4370    -0.1910 c3         1 MF2      -0.075400
      8 C12         -0.0290     0.1670    -1.4330 c3         1 MF2      -0.074400
      9 C13         -0.5990    -0.3830    -2.7340 c3         1 MF2      -0.074400
     10 C14          0.0330     0.2410    -3.9720 c3         1 MF2      -0.073400
     11 C15         -0.5490    -0.2990    -5.2710 c3         1 MF2      -0.094400
     12 C16          0.0830     0.3510    -6.4910 c3         1 MF2       0.098000
     13 N1          -0.2870     0.1130     3.5790 n3         1 MF2      -0.722600
     14 C5          -0.6790     0.6170     5.9330 c6         1 MF2       0.147600
     15 C6          -1.2190    -0.0500     4.6780 c6         1 MF2       0.132800
     16 N17         -0.4950    -0.1740    -7.7130 ns         1 MF2      -0.585900
     17 C18         -0.0510     0.1390    -8.9310 c          1 MF2       0.662900
     18 O19          0.8890     0.8820    -9.1650 o          1 MF2      -0.605100
     19 H21          0.9480    -1.5310     4.1040 h1         1 MF2       0.038950
     20 H22          1.7230    -0.2660     3.1440 h1         1 MF2       0.038950
     21 H3           1.6810     1.2920     4.9930 h1         1 MF2       0.042700
     22 H71         -1.2070     0.9260     8.0070 hc         1 MF2       0.043533
     23 H72         -2.5800     0.8400     6.9080 hc         1 MF2       0.043533
     24 H73         -1.7220    -0.6360     7.3570 hc         1 MF2       0.043533
     25 H81          3.2140     0.1230     6.5590 hc         1 MF2       0.043533
     26 H82          2.7230    -1.4440     5.9010 hc         1 MF2       0.043533
     27 H83          3.5910    -0.2870     4.8880 hc         1 MF2       0.043533
     28 H91         -0.7410    -1.5390     2.3280 h1         1 MF2       0.029700
     29 H92         -1.8590    -0.1870     2.2690 h1         1 MF2       0.029700
     30 H101        -0.1970     1.2130     1.1100 hc         1 MF2       0.046700
     31 H102         0.9760    -0.0890     1.1400 hc         1 MF2       0.046700
     32 H111        -0.5450    -1.5260    -0.2080 hc         1 MF2       0.036700
     33 H112        -1.7510    -0.2580    -0.2200 hc         1 MF2       0.036700
     34 H121        -0.1580     1.2540    -1.4130 hc         1 MF2       0.040200
     35 H122         1.0520    -0.0090    -1.4070 hc         1 MF2       0.040200
     36 H131        -0.4610    -1.4690    -2.7640 hc         1 MF2       0.037700
     37 H132        -1.6820    -0.2150    -2.7560 hc         1 MF2       0.037700
     38 H141        -0.1010     1.3280    -3.9370 hc         1 MF2       0.043200
     39 H142         1.1140     0.0670    -3.9550 hc         1 MF2       0.043200
     40 H151        -0.4020    -1.3830    -5.3180 hc         1 MF2       0.042200
     41 H152        -1.6300    -0.1280    -5.2850 hc         1 MF2       0.042200
     42 H161        -0.0560     1.4350    -6.4460 h1         1 MF2       0.051700
     43 H162         1.1610     0.1710    -6.4910 h1         1 MF2       0.051700
     44 H5          -0.5840     1.6940     5.7230 h1         1 MF2       0.042700
     45 H61         -1.4290    -1.1130     4.8920 h1         1 MF2       0.038950
     46 H62         -2.1700     0.4210     4.4140 h1         1 MF2       0.038950
     47 HNH         -1.2950    -0.7830    -7.6460 hn         1 MF2       0.311500
     48 H18         -0.6290    -0.3560    -9.7260 h5         1 MF2       0.005200
     49 C9          -0.7960    -0.4360     2.3360 c3         1 MF2       0.174800
@<TRIPOS>BOND
     1     1     2 1   
     2     1    13 1   
     3     1    19 1   
     4     1    20 1   
     5     2     3 1   
     6     2     5 1   
     7     2    21 1   
     8     3    14 1   
     9     4    14 1   
    10     4    22 1   
    11     4    23 1   
    12     4    24 1   
    13     5    25 1   
    14     5    26 1   
    15     5    27 1   
    16     6     7 1   
    17     6    30 1   
    18     6    31 1   
    19     6    49 1   
    20     7     8 1   
    21     7    32 1   
    22     7    33 1   
    23     8     9 1   
    24     8    34 1   
    25     8    35 1   
    26     9    10 1   
    27     9    36 1   
    28     9    37 1   
    29    10    11 1   
    30    10    38 1   
    31    10    39 1   
    32    11    12 1   
    33    11    40 1   
    34    11    41 1   
    35    12    16 1   
    36    12    42 1   
    37    12    43 1   
    38    13    15 1   
    39    13    49 1   
    40    14    15 1   
    41    14    44 1   
    42    15    45 1   
    43    15    46 1   
    44    16    17 1   
    45    16    47 1   
    46    17    18 2   
    47    17    48 1   
    48    28    49 1   
    49    29    49 1   
@<TRIPOS>SUBSTRUCTURE
     1 MF2         1 TEMP              0 ****  ****    0 ROOT
