@<TRIPOS>MOLECULE
MF2
   49    49     1     0     0
SMALL
No Charge or Current Charge


@<TRIPOS>ATOM
      1 C2           1.0410    -0.2350     3.9490 c6         1 MF2       0.132800
      2 C3           1.5440     0.3330     5.3160 c6         1 MF2       0.170800
      3 O4           0.6180    -0.0070     6.3730 os         1 MF2      -0.460000
      4 C7          -1.5870     0.0880     7.3410 c3         1 MF2      -0.088100
      5 C8           2.9260    -0.2340     5.7190 c3         1 MF2      -0.088100
      6 C10         -0.1050     0.1550     1.0920 c3         1 MF2      -0.077400
      7 C11         -0.7830    -0.2840    -0.2250 c3         1 MF2      -0.075400
      8 C12         -0.0090     0.1670    -1.4830 c3         1 MF2      -0.074400
      9 C13         -0.6870    -0.2710    -2.7990 c3         1 MF2      -0.074400
     10 C14          0.0860     0.1800    -4.0580 c3         1 MF2      -0.073400
     11 C15         -0.5920    -0.2590    -5.3740 c3         1 MF2      -0.094400
     12 C16          0.1820     0.1930    -6.6260 c3         1 MF2       0.098000
     13 N1          -0.3530     0.2200     3.6320 n3         1 MF2      -0.722600
     14 C5          -0.7160     0.4930     6.1280 c6         1 MF2       0.170800
     15 C6          -1.2660    -0.0760     4.7810 c6         1 MF2       0.132800
     16 N17         -0.4830    -0.2360    -7.8570 ns         1 MF2      -0.518900
     17 C18         -0.0170     0.0250    -9.1260 c          1 MF2       0.595900
     18 O19          1.0150     0.6520    -9.3350 o          1 MF2      -0.605100
     19 H21          1.0810    -1.3340     3.9850 h1         1 MF2       0.038950
     20 H22          1.7420     0.0890     3.1680 h1         1 MF2       0.038950
     21 H3           1.6200     1.4280     5.2490 h1         1 MF2       0.042700
     22 H71         -1.1810     0.5010     8.2720 hc         1 MF2       0.043533
     23 H72         -2.6110     0.4630     7.2300 hc         1 MF2       0.043533
     24 H73         -1.6390    -1.0020     7.4470 hc         1 MF2       0.043533
     25 H81          3.2570     0.1810     6.6780 hc         1 MF2       0.043533
     26 H82          2.8960    -1.3260     5.8140 hc         1 MF2       0.043533
     27 H83          3.6850     0.0160     4.9690 hc         1 MF2       0.043533
     28 H91         -0.9010    -1.4000     2.3700 h1         1 MF2       0.029700
     29 H92         -1.9230     0.0320     2.2310 h1         1 MF2       0.029700
     30 H101        -0.0160     1.2480     1.1050 hc         1 MF2       0.046700
     31 H102         0.9110    -0.2550     1.1170 hc         1 MF2       0.046700
     32 H111        -0.8780    -1.3770    -0.2330 hc         1 MF2       0.036700
     33 H112        -1.7990     0.1270    -0.2610 hc         1 MF2       0.036700
     34 H121         0.0870     1.2600    -1.4740 hc         1 MF2       0.040200
     35 H122         1.0080    -0.2440    -1.4480 hc         1 MF2       0.040200
     36 H131        -0.7840    -1.3640    -2.8080 hc         1 MF2       0.037700
     37 H132        -1.7040     0.1400    -2.8350 hc         1 MF2       0.037700
     38 H141         0.1830     1.2730    -4.0490 hc         1 MF2       0.043200
     39 H142         1.1030    -0.2320    -4.0230 hc         1 MF2       0.043200
     40 H151        -0.6870    -1.3520    -5.3840 hc         1 MF2       0.042200
     41 H152        -1.6080     0.1540    -5.4110 hc         1 MF2       0.042200
     42 H161         0.2670     1.2880    -6.6320 h1         1 MF2       0.051700
     43 H162         1.1960    -0.2310    -6.6050 h1         1 MF2       0.051700
     44 H5          -0.6800     1.5920     6.0720 h1         1 MF2       0.042700
     45 H61         -1.4010    -1.1630     4.8850 h1         1 MF2       0.038950
     46 H62         -2.2600     0.3550     4.5950 h1         1 MF2       0.038950
     47 HNH         -1.3470    -0.7620    -7.7880 hn         1 MF2       0.311500
     48 H18         -0.6690    -0.3870    -9.9180 h5         1 MF2       0.005200
     49 C9          -0.8830    -0.3020     2.3480 c3         1 MF2       0.174800
@<TRIPOS>BOND
     1     1     2 1   
     2     1    13 1   
     3     1    19 1   
     4     1    20 1   
     5     2     3 1   
     6     2     5 1   
     7     2    21 1   
     8     3    14 1   
     9     4    14 1   
    10     4    22 1   
    11     4    23 1   
    12     4    24 1   
    13     5    25 1   
    14     5    26 1   
    15     5    27 1   
    16     6     7 1   
    17     6    30 1   
    18     6    31 1   
    19     6    49 1   
    20     7     8 1   
    21     7    32 1   
    22     7    33 1   
    23     8     9 1   
    24     8    34 1   
    25     8    35 1   
    26     9    10 1   
    27     9    36 1   
    28     9    37 1   
    29    10    11 1   
    30    10    38 1   
    31    10    39 1   
    32    11    12 1   
    33    11    40 1   
    34    11    41 1   
    35    12    16 1   
    36    12    42 1   
    37    12    43 1   
    38    13    15 1   
    39    13    49 1   
    40    14    15 1   
    41    14    44 1   
    42    15    45 1   
    43    15    46 1   
    44    16    17 1   
    45    16    47 1   
    46    17    18 2   
    47    17    48 1   
    48    28    49 1   
    49    29    49 1   
@<TRIPOS>SUBSTRUCTURE
     1 MF2         1 TEMP              0 ****  ****    0 ROOT
