@<TRIPOS>MOLECULE
MF3
   19    18     1     0     0
SMALL
No Charge or Current Charge


@<TRIPOS>ATOM
      1 N           20.3190   -15.3080     9.7630 n8         1 MF3      -0.878800
      2 CA          20.5160   -14.1170     8.8520 c3         1 MF3       0.022500
      3 C           19.3690   -13.8250     7.7860 c          1 MF3       0.937600
      4 O           19.1100   -14.6800     6.9420 o          1 MF3      -0.827300
      5 CB          21.9040   -14.1990     8.1610 c3         1 MF3      -0.099400
      6 CG          23.1030   -14.1270     9.1320 c3         1 MF3       0.032700
      7 SD          24.6910   -14.1360     8.1870 ss         1 MF3      -0.338200
      8 CE          25.9060   -14.0310     9.5760 c3         1 MF3       0.731000
      9 OXT         18.7320   -12.7790     7.8780 o          1 MF3      -0.827300
     10 FZ1         25.7340   -12.9050    10.3050 f          1 MF3      -0.231633
     11 FZ2         27.1780   -14.0220     9.1190 f          1 MF3      -0.231633
     12 FZ3         25.7900   -15.0800    10.4210 f          1 MF3      -0.231633
     13 H           21.1590   -15.4510    10.3320 hn         1 MF3       0.322300
     14 H2          20.2400   -16.1570     9.1930 hn         1 MF3       0.322300
     15 HA          20.5410   -13.2330     9.5030 h1         1 MF3       0.044700
     16 HB2         21.9680   -15.1200     7.5670 hc         1 MF3       0.063200
     17 HB3         21.9880   -13.3650     7.4530 hc         1 MF3       0.063200
     18 HG2         23.0450   -13.2060     9.7270 h1         1 MF3       0.062700
     19 HG3         23.0920   -14.9860     9.8160 h1         1 MF3       0.062700
@<TRIPOS>BOND
     1     1     2 1   
     2     1    13 1   
     3     1    14 1   
     4     2     3 1   
     5     2     5 1   
     6     2    15 1   
     7     3     4 1   
     8     3     9 1   
     9     5     6 1   
    10     5    16 1   
    11     5    17 1   
    12     6     7 1   
    13     6    18 1   
    14     6    19 1   
    15     7     8 1   
    16     8    10 1   
    17     8    11 1   
    18     8    12 1   
@<TRIPOS>SUBSTRUCTURE
     1 MF3         1 TEMP              0 ****  ****    0 ROOT
