@<TRIPOS>MOLECULE
MF3
   19    18     1     0     0
SMALL
bcc


@<TRIPOS>ATOM
      1 N           20.3350   -15.2810     9.7280 n8         1 MF3      -0.878800
      2 CA          20.5460   -14.1160     8.8890 c3         1 MF3       0.022500
      3 C           19.4560   -14.0180     7.7880 c          1 MF3       0.937600
      4 O           18.8260   -15.0580     7.5190 o          1 MF3      -0.827300
      5 CB          21.9190   -14.0450     8.1940 c3         1 MF3      -0.099400
      6 CG          23.0710   -14.0180     9.1890 c3         1 MF3       0.032700
      7 SD          24.6200   -13.8150     8.2490 ss         1 MF3      -0.338200
      8 CE          25.8310   -14.0820     9.5350 c3         1 MF3       0.731000
      9 OXT         19.3380   -12.9030     7.2430 o          1 MF3      -0.827300
     10 FZ1         25.7170   -13.2280    10.5550 f          1 MF3      -0.231633
     11 FZ2         27.0410   -13.9220     8.9990 f          1 MF3      -0.231633
     12 FZ3         25.7820   -15.3080    10.0630 f          1 MF3      -0.231633
     13 H           21.1110   -15.4240    10.3620 hn         1 MF3       0.322300
     14 H2          20.2680   -16.1040     9.1430 hn         1 MF3       0.322300
     15 HA          20.4590   -13.2250     9.5220 h1         1 MF3       0.044700
     16 HB2         22.0340   -14.9020     7.5230 hc         1 MF3       0.063200
     17 HB3         21.9490   -13.1430     7.5780 hc         1 MF3       0.063200
     18 HG2         22.9590   -13.1850     9.8830 h1         1 MF3       0.062700
     19 HG3         23.1250   -14.9490     9.7520 h1         1 MF3       0.062700
@<TRIPOS>BOND
     1     1     2 1   
     2     1    13 1   
     3     1    14 1   
     4     2     3 1   
     5     2     5 1   
     6     2    15 1   
     7     3     4 1   
     8     3     9 1   
     9     5     6 1   
    10     5    16 1   
    11     5    17 1   
    12     6     7 1   
    13     6    18 1   
    14     6    19 1   
    15     7     8 1   
    16     8    10 1   
    17     8    11 1   
    18     8    12 1   
@<TRIPOS>SUBSTRUCTURE
     1 MF3         1 TEMP              0 ****  ****    0 ROOT
