@<TRIPOS>MOLECULE
MF5
   32    33     1     0     0
SMALL
abcg2


@<TRIPOS>ATOM
      1 FAE          1.8890    -2.4170    -0.1650 f          1 MF5      -0.140500
      2 CAS          2.4290    -1.2030    -0.1260 ca         1 MF5       0.195500
      3 CAQ          3.6990    -1.0710     0.4030 ca         1 MF5       0.101000
      4 FAC          4.3550    -2.1310     0.8590 f          1 MF5      -0.121000
      5 CAP          4.2840     0.1800     0.4630 ca         1 MF5       0.172000
      6 FAB          5.4980     0.3170     0.9700 f          1 MF5      -0.114000
      7 CAR          3.6010     1.2860    -0.0070 ca         1 MF5       0.101000
      8 FAD          4.1620     2.4870     0.0540 f          1 MF5      -0.121000
      9 CAT          2.3330     1.1280    -0.5310 ca         1 MF5       0.195500
     10 FAF          1.6950     2.2080    -0.9690 f          1 MF5      -0.140500
     11 CAU          1.7250    -0.1150    -0.6180 ca         1 MF5      -0.180300
     12 CAL          0.3420    -0.2640    -1.1680 c3         1 MF5       0.219900
     13 OAN         -0.5530    -0.0640    -0.0700 os         1 MF5      -0.271000
     14 NAM         -1.8210    -0.0830    -0.4970 n2         1 MF5      -0.245700
     15 CAG         -2.6660     0.0460     0.4440 ce         1 MF5       0.337800
     16 CAO         -4.0780     0.0830     0.0710 ca         1 MF5      -0.004200
     17 CAJ         -4.4870     0.2840    -1.2380 ca         1 MF5      -0.102000
     18 CAH         -5.8320     0.3170    -1.5510 ca         1 MF5       0.010000
     19 CAI         -6.7670     0.1560    -0.5400 ca         1 MF5      -0.114000
     20 CAK         -6.3230    -0.0400     0.7430 ca         1 MF5      -0.060000
     21 NAV         -5.0130    -0.0770     1.0340 na         1 MF5       0.063300
     22 CAA         -4.6180    -0.3130     2.4300 c3         1 MF5       0.009900
     23 HAL1         0.1500     0.4740    -1.9480 h1         1 MF5       0.076700
     24 HAL2         0.1940    -1.2540    -1.5990 h1         1 MF5       0.076700
     25 HAG1        -2.3630     0.1470     1.4820 h4         1 MF5       0.042800
     26 HAJ         -3.7380     0.4230    -2.0030 ha         1 MF5       0.186000
     27 HAH         -6.1450     0.4760    -2.5730 ha         1 MF5       0.172000
     28 HAI         -7.8290     0.1820    -0.7330 ha         1 MF5       0.180000
     29 HAK         -7.0030    -0.1720     1.5700 h4         1 MF5       0.184000
     30 HAA1        -4.0860     0.5510     2.8170 h1         1 MF5       0.096700
     31 HAA2        -5.5120    -0.4710     3.0220 h1         1 MF5       0.096700
     32 HAA3        -3.9930    -1.1990     2.4900 h1         1 MF5       0.096700
@<TRIPOS>BOND
     1     1     2 1   
     2     2     3 ar  
     3     2    11 ar  
     4     3     4 1   
     5     3     5 ar  
     6     5     6 1   
     7     5     7 ar  
     8     7     8 1   
     9     7     9 ar  
    10     9    10 1   
    11     9    11 ar  
    12    11    12 1   
    13    12    13 1   
    14    12    23 1   
    15    12    24 1   
    16    13    14 1   
    17    14    15 2   
    18    15    16 1   
    19    15    25 1   
    20    16    17 ar  
    21    16    21 2   
    22    17    18 ar  
    23    17    26 1   
    24    18    19 ar  
    25    18    27 1   
    26    19    20 ar  
    27    19    28 1   
    28    20    21 1   
    29    20    29 1   
    30    21    22 1   
    31    22    30 1   
    32    22    31 1   
    33    22    32 1   
@<TRIPOS>SUBSTRUCTURE
     1 MF5         1 TEMP              0 ****  ****    0 ROOT
