@<TRIPOS>MOLECULE
MF5
   32    33     1     0     0
SMALL
No Charge or Current Charge


@<TRIPOS>ATOM
      1 FAE          1.8670    -2.4070    -0.2880 f          1 MF5      -0.140500
      2 CAS          2.4980    -1.2140    -0.1820 ca         1 MF5       0.195500
      3 CAQ          3.7980    -1.1640     0.3540 ca         1 MF5       0.101000
      4 FAC          4.4110    -2.3040     0.7560 f          1 MF5      -0.121000
      5 CAP          4.4620     0.0690     0.4730 ca         1 MF5       0.172000
      6 FAB          5.7130     0.1180     0.9890 f          1 MF5      -0.114000
      7 CAR          3.8250     1.2520     0.0590 ca         1 MF5       0.101000
      8 FAD          4.4630     2.4410     0.1770 f          1 MF5      -0.121000
      9 CAT          2.5240     1.1990    -0.4770 ca         1 MF5       0.195500
     10 FAF          1.9190     2.3460    -0.8680 f          1 MF5      -0.140500
     11 CAU          1.8490    -0.0340    -0.6050 ca         1 MF5      -0.180300
     12 CAL          0.4360    -0.0880    -1.1780 c3         1 MF5       0.219900
     13 OAN         -0.4910     0.0540    -0.0880 os         1 MF5      -0.271000
     14 NAM         -1.8160     0.0090    -0.5670 n2         1 MF5      -0.245700
     15 CAG         -2.7090     0.1310     0.3660 ce         1 MF5       0.337800
     16 CAO         -4.1810     0.1010     0.0640 ca         1 MF5      -0.004200
     17 CAJ         -4.6320     0.1490    -1.2790 ca         1 MF5      -0.102000
     18 CAH         -6.0040     0.1180    -1.5800 ca         1 MF5       0.010000
     19 CAI         -6.9400     0.0400    -0.5380 ca         1 MF5      -0.114000
     20 CAK         -6.4930    -0.0250     0.7930 ca         1 MF5      -0.060000
     21 NAV         -5.1270    -0.0340     1.1030 na         1 MF5       0.063300
     22 CAA         -4.7130    -0.2460     2.5060 c3         1 MF5       0.009900
     23 HAL1         0.2970     0.7150    -1.9140 h1         1 MF5       0.076700
     24 HAL2         0.2780    -1.0410    -1.7010 h1         1 MF5       0.076700
     25 HAG1        -2.4070     0.2520     1.4070 h4         1 MF5       0.042800
     26 HAJ         -3.9210     0.2250    -2.1010 ha         1 MF5       0.186000
     27 HAH         -6.3400     0.1650    -2.6150 ha         1 MF5       0.172000
     28 HAI         -8.0060     0.0300    -0.7600 ha         1 MF5       0.180000
     29 HAK         -7.2050    -0.0820     1.6180 h4         1 MF5       0.184000
     30 HAA1        -4.2180     0.6560     2.8870 h1         1 MF5       0.096700
     31 HAA2        -5.5840    -0.4610     3.1370 h1         1 MF5       0.096700
     32 HAA3        -4.0240    -1.0980     2.5670 h1         1 MF5       0.096700
@<TRIPOS>BOND
     1     1     2 1   
     2     2     3 ar  
     3     2    11 ar  
     4     3     4 1   
     5     3     5 ar  
     6     5     6 1   
     7     5     7 ar  
     8     7     8 1   
     9     7     9 ar  
    10     9    10 1   
    11     9    11 ar  
    12    11    12 1   
    13    12    13 1   
    14    12    23 1   
    15    12    24 1   
    16    13    14 1   
    17    14    15 2   
    18    15    16 1   
    19    15    25 1   
    20    16    17 ar  
    21    16    21 2   
    22    17    18 ar  
    23    17    26 1   
    24    18    19 ar  
    25    18    27 1   
    26    19    20 ar  
    27    19    28 1   
    28    20    21 1   
    29    20    29 1   
    30    21    22 1   
    31    22    30 1   
    32    22    31 1   
    33    22    32 1   
@<TRIPOS>SUBSTRUCTURE
     1 MF5         1 TEMP              0 ****  ****    0 ROOT
