@<TRIPOS>MOLECULE
MF6
   54    58     1     0     0
SMALL
No Charge or Current Charge


@<TRIPOS>ATOM
      1 C17         -8.1300    22.7470   -40.9890 c5         1 MF6       0.089300
      2 C21         -5.3680    22.4820   -44.5290 c5         1 MF6       0.130300
      3 C24         -3.0750    22.3600   -43.1790 c3         1 MF6       0.244600
      4 C02         -6.0290    16.8680   -40.6660 ca         1 MF6       0.427900
      5 C04         -5.3680    18.9270   -39.9200 ca         1 MF6       0.175900
      6 C06         -5.6690    18.6830   -42.1760 ca         1 MF6       0.141500
      7 C07         -6.0210    17.3690   -41.9840 ca         1 MF6      -0.118600
      8 C09         -6.1480    17.6810   -44.1100 cc         1 MF6       0.407700
      9 C11         -5.5170    20.1210   -44.2740 c5         1 MF6       0.320300
     10 C12         -6.1880    21.4190   -43.7440 c5         1 MF6       0.098300
     11 C14         -8.4820    22.2350   -43.3600 c5         1 MF6       0.393300
     12 C16         -8.4710    23.9850   -41.8770 c5         1 MF6       0.135300
     13 C19         -8.6190    21.5860   -41.9170 c5         1 MF6       0.111300
     14 C23         -3.9270    21.8670   -44.3930 c5         1 MF6       0.160300
     15 C32         -7.9170    25.3710   -41.4080 c3         1 MF6       0.213600
     16 N01         -6.3580    15.5830   -40.3710 nv         1 MF6      -1.087900
     17 N03         -5.6990    17.6460   -39.6230 nb         1 MF6      -0.313000
     18 N05         -5.3360    19.4910   -41.1500 nb         1 MF6      -0.138000
     19 N08         -6.3240    16.7180   -43.1850 nd         1 MF6      -0.589100
     20 N10         -5.7510    18.8870   -43.5280 na         1 MF6      -0.270300
     21 O13         -7.5790    21.4670   -44.2110 os         1 MF6      -0.497000
     22 O15         -7.9790    23.5700   -43.1690 os         1 MF6      -0.439000
     23 O18         -8.8340    22.7200   -39.7270 oh         1 MF6      -0.743000
     24 O20         -9.9710    21.2870   -41.5460 oh         1 MF6      -0.727000
     25 O22         -5.8050    22.5450   -45.9010 oh         1 MF6      -0.747000
     26 O25         -3.7250    22.0520   -41.9350 os         1 MF6      -0.605400
     27 O28         -5.1050    23.9410   -41.6850 os         1 MF6      -0.744800
     28 O31         -6.6610    25.7200   -42.0220 os         1 MF6      -0.597400
     29 O35         -4.1050    20.4200   -44.3270 os         1 MF6      -0.448000
     30 P26         -3.9750    23.2240   -40.8640 p5         1 MF6       1.487800
     31 P29         -5.2470    25.4530   -41.2920 p5         1 MF6       1.485800
     32 H1          -7.0470    22.6680   -40.8300 h1         1 MF6       0.075700
     33 H2          -5.4340    23.4730   -44.0570 h1         1 MF6       0.120700
     34 H4          -2.9100    23.4400   -43.2940 h1         1 MF6       0.029200
     35 H5          -5.0990    19.5710   -39.0840 h5         1 MF6       0.082100
     36 H6          -6.2900    17.5740   -45.1790 h5         1 MF6       0.053800
     37 H7          -5.8690    19.9280   -45.2950 h2         1 MF6       0.050700
     38 H8          -6.0920    21.5260   -42.6580 h1         1 MF6       0.127700
     39 H9          -9.4730    22.2830   -43.8300 h2         1 MF6       0.082700
     40 H10         -9.5630    24.0930   -41.9460 h1         1 MF6       0.064700
     41 H11         -7.9910    20.6930   -41.8030 h1         1 MF6       0.055700
     42 H12         -3.3420    22.0930   -45.2950 h1         1 MF6       0.044700
     43 H13         -8.6640    26.1290   -41.6750 h1         1 MF6       0.040700
     44 H14         -7.8510    25.3770   -40.3120 h1         1 MF6       0.040700
     45 H15         -6.0690    15.2090   -39.4710 hn         1 MF6       0.491000
     46 H16         -6.4030    14.9290   -41.1490 hn         1 MF6       0.491000
     47 H17         -8.2140    23.0590   -39.0350 ho         1 MF6       0.529000
     48 H18        -10.0130    21.7140   -40.6470 ho         1 MF6       0.518000
     49 H19         -6.7710    22.3410   -45.8480 ho         1 MF6       0.510000
     50 O27         -4.5020    22.6330   -39.6000 o          1 MF6      -0.851000
     51 O30         -5.3730    25.7170   -39.8290 o          1 MF6      -0.846500
     52 O33         -4.2150    26.3070   -41.9510 o          1 MF6      -0.846500
     53 O34         -2.7100    23.9890   -40.6620 o          1 MF6      -0.851000
     54 H3          -2.0930    21.8720   -43.2200 h1         1 MF6       0.029200
@<TRIPOS>BOND
     1     1    12 1   
     2     1    13 1   
     3     1    23 1   
     4     1    32 1   
     5     2    10 1   
     6     2    14 1   
     7     2    25 1   
     8     2    33 1   
     9     3    14 1   
    10     3    26 1   
    11     3    34 1   
    12     3    54 1   
    13     4     7 ar  
    14     4    16 1   
    15     4    17 ar  
    16     5    17 ar  
    17     5    18 ar  
    18     5    35 1   
    19     6     7 ar  
    20     6    18 ar  
    21     6    20 1   
    22     7    19 1   
    23     8    19 2   
    24     8    20 1   
    25     8    36 1   
    26     9    10 1   
    27     9    20 1   
    28     9    29 1   
    29     9    37 1   
    30    10    21 1   
    31    10    38 1   
    32    11    13 1   
    33    11    21 1   
    34    11    22 1   
    35    11    39 1   
    36    12    15 1   
    37    12    22 1   
    38    12    40 1   
    39    13    24 1   
    40    13    41 1   
    41    14    29 1   
    42    14    42 1   
    43    15    28 1   
    44    15    43 1   
    45    15    44 1   
    46    16    45 1   
    47    16    46 1   
    48    23    47 1   
    49    24    48 1   
    50    25    49 1   
    51    26    30 1   
    52    27    30 1   
    53    27    31 1   
    54    28    31 1   
    55    30    50 1   
    56    30    53 1   
    57    31    51 1   
    58    31    52 1   
@<TRIPOS>SUBSTRUCTURE
     1 MF6         1 TEMP              0 ****  ****    0 ROOT
