@<TRIPOS>MOLECULE
MF6
   54    58     1     0     0
SMALL
abcg2


@<TRIPOS>ATOM
      1 C17         -8.5470    22.0260   -41.2710 c5         1 MF6       0.089300
      2 C21         -5.3890    22.4350   -44.6010 c5         1 MF6       0.130300
      3 C24         -3.0910    22.5750   -43.4970 c3         1 MF6       0.244600
      4 C02         -6.1820    17.3740   -40.1810 ca         1 MF6       0.427900
      5 C04         -5.5470    19.5390   -39.7510 ca         1 MF6       0.175900
      6 C06         -5.7610    18.9890   -41.8720 ca         1 MF6       0.141500
      7 C07         -6.1260    17.6910   -41.5510 ca         1 MF6      -0.118600
      8 C09         -6.1580    17.7840   -43.6540 cc         1 MF6       0.407700
      9 C11         -5.5040    20.1310   -44.1320 c5         1 MF6       0.320300
     10 C12         -6.2440    21.4290   -43.8210 c5         1 MF6       0.098300
     11 C14         -8.5640    22.1160   -43.6550 c5         1 MF6       0.393300
     12 C16         -8.2010    23.4400   -41.7590 c5         1 MF6       0.135300
     13 C19         -9.2610    21.4290   -42.4770 c5         1 MF6       0.111300
     14 C23         -3.9830    21.8380   -44.4690 c5         1 MF6       0.160300
     15 C32         -6.9280    23.9430   -41.1210 c3         1 MF6       0.213600
     16 N01         -6.5320    16.1660   -39.7360 nv         1 MF6      -1.087900
     17 N03         -5.8800    18.3340   -39.3000 nb         1 MF6      -0.313000
     18 N05         -5.4620    19.9520   -41.0020 nb         1 MF6      -0.138000
     19 N08         -6.3710    16.9530   -42.6810 nd         1 MF6      -0.589100
     20 N10         -5.7890    19.0380   -43.2420 na         1 MF6      -0.270300
     21 O13         -7.5660    21.3340   -44.2650 os         1 MF6      -0.497000
     22 O15         -8.0560    23.3240   -43.1720 os         1 MF6      -0.439000
     23 O18         -9.3750    21.9840   -40.1430 oh         1 MF6      -0.743000
     24 O20        -10.6080    21.8270   -42.5240 oh         1 MF6      -0.727000
     25 O22         -5.7310    22.4490   -45.9650 oh         1 MF6      -0.747000
     26 O25         -3.7250    22.6490   -42.2460 os         1 MF6      -0.605400
     27 O28         -4.0060    25.0600   -41.5860 os         1 MF6      -0.744800
     28 O31         -6.5550    25.1820   -41.6740 os         1 MF6      -0.597400
     29 O35         -4.1510    20.4730   -44.0620 os         1 MF6      -0.448000
     30 P26         -3.2260    23.7030   -41.0840 p5         1 MF6       1.487800
     31 P29         -5.2570    25.9970   -41.0710 p5         1 MF6       1.485800
     32 H1          -7.6190    21.4660   -41.0970 h1         1 MF6       0.075700
     33 H2          -5.4480    23.4380   -44.1640 h1         1 MF6       0.120700
     34 H4          -2.8950    23.5640   -43.9290 h1         1 MF6       0.029200
     35 H5          -5.3120    20.2770   -38.9910 h5         1 MF6       0.082100
     36 H6          -6.2550    17.5550   -44.7060 h5         1 MF6       0.053800
     37 H7          -5.7810    19.7750   -45.1330 h2         1 MF6       0.050700
     38 H8          -6.1490    21.6290   -42.7520 h1         1 MF6       0.127700
     39 H9          -9.2870    22.3070   -44.4540 h2         1 MF6       0.082700
     40 H10         -9.0290    24.1250   -41.5390 h1         1 MF6       0.064700
     41 H11         -9.1560    20.3380   -42.5290 h1         1 MF6       0.055700
     42 H12         -3.4890    21.8620   -45.4470 h1         1 MF6       0.044700
     43 H13         -7.1060    24.0210   -40.0410 h1         1 MF6       0.040700
     44 H14         -6.1420    23.1960   -41.2580 h1         1 MF6       0.040700
     45 H15         -6.5080    15.9640   -38.7510 hn         1 MF6       0.491000
     46 H16         -6.7070    15.4090   -40.3720 hn         1 MF6       0.491000
     47 H17         -8.8500    22.1650   -39.3580 ho         1 MF6       0.529000
     48 H18        -11.0060    21.6510   -41.6640 ho         1 MF6       0.518000
     49 H19         -6.6680    22.6560   -46.0420 ho         1 MF6       0.510000
     50 O27         -3.7950    23.1710   -39.8100 o          1 MF6      -0.851000
     51 O30         -5.3220    26.0210   -39.5780 o          1 MF6      -0.846500
     52 O33         -5.1800    27.2520   -41.8780 o          1 MF6      -0.846500
     53 O34         -1.7650    23.9730   -41.2560 o          1 MF6      -0.851000
     54 H3          -2.1250    22.0630   -43.4220 h1         1 MF6       0.029200
@<TRIPOS>BOND
     1     1    12 1   
     2     1    13 1   
     3     1    23 1   
     4     1    32 1   
     5     2    10 1   
     6     2    14 1   
     7     2    25 1   
     8     2    33 1   
     9     3    14 1   
    10     3    26 1   
    11     3    34 1   
    12     3    54 1   
    13     4     7 ar  
    14     4    16 1   
    15     4    17 ar  
    16     5    17 ar  
    17     5    18 ar  
    18     5    35 1   
    19     6     7 ar  
    20     6    18 ar  
    21     6    20 1   
    22     7    19 1   
    23     8    19 2   
    24     8    20 1   
    25     8    36 1   
    26     9    10 1   
    27     9    20 1   
    28     9    29 1   
    29     9    37 1   
    30    10    21 1   
    31    10    38 1   
    32    11    13 1   
    33    11    21 1   
    34    11    22 1   
    35    11    39 1   
    36    12    15 1   
    37    12    22 1   
    38    12    40 1   
    39    13    24 1   
    40    13    41 1   
    41    14    29 1   
    42    14    42 1   
    43    15    28 1   
    44    15    43 1   
    45    15    44 1   
    46    16    45 1   
    47    16    46 1   
    48    23    47 1   
    49    24    48 1   
    50    25    49 1   
    51    26    30 1   
    52    27    30 1   
    53    27    31 1   
    54    28    31 1   
    55    30    50 1   
    56    30    53 1   
    57    31    51 1   
    58    31    52 1   
@<TRIPOS>SUBSTRUCTURE
     1 MF6         1 TEMP              0 ****  ****    0 ROOT
