@<TRIPOS>MOLECULE
MF8
   20    19     1     0     0
SMALL
abcg2


@<TRIPOS>ATOM
      1 N08         -2.8030    -1.0750     0.3690 n2         1 MF8      -0.911100
      2 C07         -1.9100    -0.2070     0.0680 c2         1 MF8       0.842100
      3 N06         -0.5490    -0.4390     0.2480 nu         1 MF8      -0.933400
      4 N09         -2.2450     0.9740    -0.5140 nv         1 MF8      -1.037200
      5 C01          1.8720    -1.5760    -0.3190 c3         1 MF8       0.214100
      6 N02          1.7270    -0.1810     0.0550 nh         1 MF8      -0.833600
      7 N05          0.3080     1.7060     0.0650 n2         1 MF8      -0.926100
      8 C04          0.5150     0.4400     0.1030 c2         1 MF8       0.872100
      9 C03          2.9260     0.6170     0.1820 c3         1 MF8       0.214100
     10 H08         -2.3930    -1.9230     0.7410 hn         1 MF8       0.376400
     11 H091        -3.2210     1.2100    -0.4490 hn         1 MF8       0.496500
     12 H092        -1.5790     1.7290    -0.3930 hn         1 MF8       0.496500
     13 H06         -0.3360    -1.3450     0.6320 hn         1 MF8       0.491000
     14 H05          1.1450     2.2230    -0.1680 hn         1 MF8       0.397400
     15 H031         3.2170     1.1020    -0.7550 h1         1 MF8       0.039867
     16 H032         2.7980     1.3860     0.9430 h1         1 MF8       0.039867
     17 H033         3.7480    -0.0210     0.5000 h1         1 MF8       0.039867
     18 H011         1.7500    -2.2560     0.5280 h1         1 MF8       0.039867
     19 H012         1.1650    -1.8600    -1.0970 h1         1 MF8       0.039867
     20 H013         2.8710    -1.7310    -0.7200 h1         1 MF8       0.039867
@<TRIPOS>BOND
     1     1     2 2   
     2     1    10 1   
     3     2     3 1   
     4     2     4 1   
     5     3     8 1   
     6     3    13 1   
     7     4    11 1   
     8     4    12 1   
     9     5     6 1   
    10     5    18 1   
    11     5    19 1   
    12     5    20 1   
    13     6     8 1   
    14     6     9 1   
    15     7     8 2   
    16     7    14 1   
    17     9    15 1   
    18     9    16 1   
    19     9    17 1   
@<TRIPOS>SUBSTRUCTURE
     1 MF8         1 TEMP              0 ****  ****    0 ROOT
