@<TRIPOS>MOLECULE
MF8
   20    19     1     0     0
SMALL
No Charge or Current Charge


@<TRIPOS>ATOM
      1 N08         -2.1670    -1.1110     0.3300 n2         1 MF8      -0.911100
      2 C07         -1.7830    -0.0050    -0.0690 c2         1 MF8       0.842100
      3 N06         -0.5740     0.3220     0.2450 nu         1 MF8      -0.933400
      4 N09         -2.4090     1.0430     0.3270 nv         1 MF8      -1.037200
      5 C01          1.8820    -1.5480    -0.7020 c3         1 MF8       0.214100
      6 N02          1.4670    -0.2380    -0.1600 nh         1 MF8      -0.833600
      7 N05          0.5190     1.3770    -1.3790 n2         1 MF8      -0.926100
      8 C04          0.3790     0.3710    -0.6520 c2         1 MF8       0.872100
      9 C03          2.4450     0.4840     0.6900 c3         1 MF8       0.214100
     10 H08         -1.3900    -1.7710     0.2180 hn         1 MF8       0.376400
     11 H091        -3.0070     0.7630     1.0860 hn         1 MF8       0.496500
     12 H092        -1.6880     1.6870     0.6040 hn         1 MF8       0.496500
     13 H06         -0.2220    -0.2770     0.9640 hn         1 MF8       0.491000
     14 H05          1.4950     1.3240    -1.6850 hn         1 MF8       0.397400
     15 H031         2.9220     1.2970     0.1260 h1         1 MF8       0.039867
     16 H032         1.9430     0.9200     1.5640 h1         1 MF8       0.039867
     17 H033         3.2330    -0.1880     1.0530 h1         1 MF8       0.039867
     18 H011         1.0730    -2.2810    -0.5880 h1         1 MF8       0.039867
     19 H012         2.1200    -1.4600    -1.7700 h1         1 MF8       0.039867
     20 H013         2.7680    -1.9370    -0.1830 h1         1 MF8       0.039867
@<TRIPOS>BOND
     1     1     2 2   
     2     1    10 1   
     3     2     3 1   
     4     2     4 1   
     5     3     8 1   
     6     3    13 1   
     7     4    11 1   
     8     4    12 1   
     9     5     6 1   
    10     5    18 1   
    11     5    19 1   
    12     5    20 1   
    13     6     8 1   
    14     6     9 1   
    15     7     8 2   
    16     7    14 1   
    17     9    15 1   
    18     9    16 1   
    19     9    17 1   
@<TRIPOS>SUBSTRUCTURE
     1 MF8         1 TEMP              0 ****  ****    0 ROOT
