@<TRIPOS>MOLECULE
MF9
   24    24     1     0     0
SMALL
bcc


@<TRIPOS>ATOM
      1 C01          6.8720     6.1280    17.5430 c3         1 MF9      -0.220400
      2 C02          6.1510     5.6750    16.2520 c          1 MF9       0.930600
      3 C05          6.9250     7.6370    17.7240 c3         1 MF9       0.085400
      4 C06          6.2020     7.5750    20.4740 ca         1 MF9       0.074900
      5 C07          4.2610     6.8210    22.3210 ca         1 MF9       0.006400
      6 O08          5.2950     6.4510    15.7810 o          1 MF9      -0.836800
      7 C10          6.5120     7.4670    21.8310 ca         1 MF9      -0.121000
      8 C11          4.9000     7.2970    20.0610 ca         1 MF9      -0.121000
      9 C13          5.5480     7.0990    22.7550 ca         1 MF9      -0.117500
     10 S03          7.4880     8.1120    19.4000 ss         1 MF9      -0.353000
     11 O04          6.4630     4.5500    15.8180 o          1 MF9      -0.836800
     12 CL09         3.0510     6.3460    23.4690 cl         1 MF9      -0.146400
     13 C12          3.9340     6.9140    20.9790 ca         1 MF9      -0.117500
     14 C14          7.8990     8.2980    16.7570 c3         1 MF9      -0.077100
     15 H15          6.3390     5.6660    18.3820 hc         1 MF9       0.034700
     16 H16          7.8870     5.7230    17.5740 hc         1 MF9       0.034700
     17 H17          5.9380     8.0700    17.5650 h1         1 MF9       0.084700
     18 H19          7.5190     7.6670    22.1760 ha         1 MF9       0.152000
     19 H20          4.6140     7.3680    19.0200 ha         1 MF9       0.152000
     20 H22          5.8070     7.0220    23.8020 ha         1 MF9       0.136500
     21 H21          2.9300     6.6970    20.6400 ha         1 MF9       0.136500
     22 H25          7.9100     9.3820    16.8680 hc         1 MF9       0.039367
     23 H24          8.9160     7.9280    16.8990 hc         1 MF9       0.039367
     24 H23          7.6000     8.0710    15.7350 hc         1 MF9       0.039367
@<TRIPOS>BOND
     1     1     2 1   
     2     1     3 1   
     3     1    15 1   
     4     1    16 1   
     5     2     6 1   
     6     2    11 1   
     7     3    10 1   
     8     3    14 1   
     9     3    17 1   
    10     4     7 ar  
    11     4     8 ar  
    12     4    10 1   
    13     5     9 ar  
    14     5    12 1   
    15     5    13 ar  
    16     7     9 ar  
    17     7    18 1   
    18     8    13 ar  
    19     8    19 1   
    20     9    20 1   
    21    13    21 1   
    22    14    22 1   
    23    14    23 1   
    24    14    24 1   
@<TRIPOS>SUBSTRUCTURE
     1 MF9         1 TEMP              0 ****  ****    0 ROOT
