@<TRIPOS>MOLECULE
MF9
   24    24     1     0     0
SMALL
No Charge or Current Charge


@<TRIPOS>ATOM
      1 C01          6.9280     6.0580    17.7150 c3         1 MF9      -0.220400
      2 C02          6.3840     5.4860    16.4020 c          1 MF9       0.720000
      3 C05          6.9150     7.6070    17.6780 c3         1 MF9       0.133300
      4 C06          6.1520     7.7190    20.4710 ca         1 MF9      -0.052000
      5 C07          4.2060     6.8420    22.3060 ca         1 MF9       0.098000
      6 O08          5.1740     5.3740    16.2840 o          1 MF9      -0.731500
      7 C10          6.5360     7.2570    21.7420 ca         1 MF9      -0.103000
      8 C11          4.7860     7.7540    20.1250 ca         1 MF9      -0.103000
      9 C13          5.5650     6.8150    22.6590 ca         1 MF9      -0.099500
     10 S03          7.4180     8.2770    19.3340 ss         1 MF9      -0.274000
     11 O04          7.1800     5.1980    15.5210 o          1 MF9      -0.731500
     12 Cl09         2.9900     6.2910    23.4520 cl         1 MF9      -0.238000
     13 C12          3.8150     7.3130    21.0420 ca         1 MF9      -0.099500
     14 C14          7.8510     8.2150    16.6110 c3         1 MF9      -0.077100
     15 H15          6.2570     5.7780    18.5350 hc         1 MF9       0.034700
     16 H16          7.9680     5.7520    17.8750 hc         1 MF9       0.034700
     17 H17          5.8950     7.9500    17.4620 h1         1 MF9       0.084700
     18 H19          7.5880     7.2350    22.0170 ha         1 MF9       0.134000
     19 H20          4.4700     8.1300    19.1550 ha         1 MF9       0.134000
     20 H22          5.8650     6.4540    23.6390 ha         1 MF9       0.118500
     21 H21          2.7620     7.3390    20.7740 ha         1 MF9       0.118500
     22 H25          7.8380     9.3090    16.6700 hc         1 MF9       0.039367
     23 H24          8.8840     7.8760    16.7590 hc         1 MF9       0.039367
     24 H23          7.5340     7.9340    15.6000 hc         1 MF9       0.039367
@<TRIPOS>BOND
     1     1     2 1   
     2     1     3 1   
     3     1    15 1   
     4     1    16 1   
     5     2     6 1   
     6     2    11 1   
     7     3    10 1   
     8     3    14 1   
     9     3    17 1   
    10     4     7 ar  
    11     4     8 ar  
    12     4    10 1   
    13     5     9 ar  
    14     5    12 1   
    15     5    13 ar  
    16     7     9 ar  
    17     7    18 1   
    18     8    13 ar  
    19     8    19 1   
    20     9    20 1   
    21    13    21 1   
    22    14    22 1   
    23    14    23 1   
    24    14    24 1   
@<TRIPOS>SUBSTRUCTURE
     1 MF9         1 TEMP              0 ****  ****    0 ROOT
