@<TRIPOS>MOLECULE
MFC
   39    40     1     0     0
SMALL
No Charge or Current Charge


@<TRIPOS>ATOM
      1 N            2.6380     3.1960    -3.0720 n8         1 MFC      -0.985200
      2 CA1          3.5090     2.3570    -3.9760 c3         1 MFC       0.095200
      3 CB1          3.4020     0.8460    -3.5790 c3         1 MFC       0.143300
      4 CG1          4.4400    -0.0550    -4.2810 c3         1 MFC      -0.122100
      5 OG1          3.5590     0.6970    -2.1550 oh         1 MFC      -0.681000
      6 C1           3.2640     2.5930    -5.4780 cc         1 MFC       0.537900
      7 N2           2.2750     1.9860    -6.1550 nd         1 MFC      -0.690300
      8 N3           4.0010     3.4870    -6.2440 n          1 MFC      -0.284300
      9 C2           3.5280     3.4950    -7.5330 c          1 MFC       0.533200
     10 O2           3.9330     4.1460    -8.4890 o          1 MFC      -0.517000
     11 CA2          2.4220     2.5200    -7.4310 cd         1 MFC       0.046400
     12 CA3          5.1430     4.3310    -5.7970 c3         1 MFC      -0.061000
     13 C            6.5200     3.6470    -5.9210 c          1 MFC       0.708000
     14 O            6.6850     2.5810    -5.3470 o          1 MFC      -0.720000
     15 CB2          1.6060     2.1520    -8.4830 ce         1 MFC      -0.120200
     16 CG2          0.5660     1.0850    -8.5920 ca         1 MFC      -0.040800
     17 CD1         -0.4730     1.2380    -9.5320 ca         1 MFC      -0.085000
     18 CD2          0.6080    -0.0850    -7.8050 ca         1 MFC      -0.087000
     19 CE1         -1.4660     0.2510    -9.6740 ca         1 MFC      -0.196000
     20 CE2         -0.3820    -1.0720    -7.9450 ca         1 MFC       0.126000
     21 F           -0.3180    -2.1860    -7.1770 f          1 MFC      -0.176000
     22 CZ          -1.4260    -0.9070    -8.8800 ca         1 MFC       0.087100
     23 OH          -2.3980    -1.8590    -9.0300 oh         1 MFC      -0.522100
     24 OXT          7.3730     4.1820    -6.6130 o          1 MFC      -0.720000
     25 H            2.7190     2.7980    -2.1270 hn         1 MFC       0.397500
     26 HN2          1.6530     3.0180    -3.3070 hn         1 MFC       0.397500
     27 HA1          4.5510     2.6410    -3.7760 h1         1 MFC       0.111700
     28 HB1          2.4020     0.4920    -3.8710 h1         1 MFC       0.078700
     29 HG11         4.3170    -0.0210    -5.3690 hc         1 MFC       0.051033
     30 HG12         5.4630     0.2610    -4.0430 hc         1 MFC       0.051033
     31 HG13         4.3200    -1.0980    -3.9640 hc         1 MFC       0.051033
     32 HG1          4.5190     0.7670    -1.9590 ho         1 MFC       0.441000
     33 HA31         5.0010     4.6220    -4.7500 h1         1 MFC       0.057200
     34 HA32         5.1630     5.2530    -6.3920 h1         1 MFC       0.057200
     35 HB2          1.7870     2.7000    -9.4090 ha         1 MFC       0.185000
     36 HD1         -0.5150     2.1310   -10.1530 ha         1 MFC       0.114000
     37 HD2          1.4100    -0.2460    -7.0910 ha         1 MFC       0.173000
     38 HE1         -2.2600     0.3940   -10.4030 ha         1 MFC       0.105000
     39 HOH         -3.0250    -1.5590    -9.7240 ho         1 MFC       0.459000
@<TRIPOS>BOND
     1     1     2 1   
     2     1    25 1   
     3     1    26 1   
     4     2     3 1   
     5     2     6 1   
     6     2    27 1   
     7     3     4 1   
     8     3     5 1   
     9     3    28 1   
    10     4    29 1   
    11     4    30 1   
    12     4    31 1   
    13     5    32 1   
    14     6     7 2   
    15     6     8 1   
    16     7    11 1   
    17     8     9 1   
    18     8    12 1   
    19     9    10 2   
    20     9    11 1   
    21    11    15 2   
    22    12    13 1   
    23    12    33 1   
    24    12    34 1   
    25    13    14 1   
    26    13    24 1   
    27    15    16 1   
    28    15    35 1   
    29    16    17 ar  
    30    16    18 ar  
    31    17    19 ar  
    32    17    36 1   
    33    18    20 ar  
    34    18    37 1   
    35    19    22 ar  
    36    19    38 1   
    37    20    21 1   
    38    20    22 ar  
    39    22    23 1   
    40    23    39 1   
@<TRIPOS>SUBSTRUCTURE
     1 MFC         1 TEMP              0 ****  ****    0 ROOT
