@<TRIPOS>MOLECULE
MFC
   39    40     1     0     0
SMALL
abcg2


@<TRIPOS>ATOM
      1 N            3.0980     3.2530    -3.2400 n8         1 MFC      -0.985200
      2 CA1          3.7290     2.2350    -4.0660 c3         1 MFC       0.095200
      3 CB1          3.4060     0.7790    -3.6810 c3         1 MFC       0.143300
      4 CG1          4.2240    -0.2220    -4.4810 c3         1 MFC      -0.122100
      5 OG1          3.5950     0.6010    -2.2900 oh         1 MFC      -0.681000
      6 C1           3.3470     2.5340    -5.4820 cc         1 MFC       0.537900
      7 N2           2.4490     1.8860    -6.1420 nd         1 MFC      -0.690300
      8 N3           3.8690     3.6140    -6.1570 n          1 MFC      -0.284300
      9 C2           3.3100     3.6400    -7.4110 c          1 MFC       0.533200
     10 O2           3.5730     4.4230    -8.3040 o          1 MFC      -0.517000
     11 CA2          2.3490     2.5120    -7.3760 cd         1 MFC       0.046400
     12 CA3          4.9950     4.4130    -5.7500 c3         1 MFC      -0.061000
     13 C            6.3490     3.6790    -5.8960 c          1 MFC       0.708000
     14 O            6.3120     2.4860    -6.2410 o          1 MFC      -0.720000
     15 CB2          1.5410     2.1960    -8.4060 ce         1 MFC      -0.120200
     16 CG2          0.5690     1.1280    -8.5040 ca         1 MFC      -0.040800
     17 CD1         -0.1750     1.0080    -9.6810 ca         1 MFC      -0.085000
     18 CD2          0.3330     0.1990    -7.4780 ca         1 MFC      -0.087000
     19 CE1         -1.1210     0.0110    -9.8420 ca         1 MFC      -0.196000
     20 CE2         -0.6060    -0.7830    -7.6530 ca         1 MFC       0.126000
     21 F           -0.8290    -1.6710    -6.6720 f          1 MFC      -0.176000
     22 CZ          -1.3560    -0.9080    -8.8250 ca         1 MFC       0.087100
     23 OH          -2.2490    -1.9010    -8.8900 oh         1 MFC      -0.522100
     24 OXT          7.3460     4.3770    -5.6370 o          1 MFC      -0.720000
     25 H            3.3990     3.1410    -2.2810 hn         1 MFC       0.397500
     26 HN2          2.0930     3.1180    -3.2390 hn         1 MFC       0.397500
     27 HA1          4.8130     2.3640    -3.9770 h1         1 MFC       0.111700
     28 HB1          2.3410     0.6040    -3.8560 h1         1 MFC       0.078700
     29 HG11         4.0250    -0.1370    -5.5470 hc         1 MFC       0.051033
     30 HG12         5.2950    -0.0600    -4.3320 hc         1 MFC       0.051033
     31 HG13         3.9870    -1.2420    -4.1760 hc         1 MFC       0.051033
     32 HG1          4.5420     0.6140    -2.1100 ho         1 MFC       0.441000
     33 HA31         4.8480     4.7320    -4.7160 h1         1 MFC       0.057200
     34 HA32         4.9990     5.3170    -6.3590 h1         1 MFC       0.057200
     35 HB2          1.6280     2.8290    -9.2830 ha         1 MFC       0.185000
     36 HD1         -0.0120     1.7090   -10.4900 ha         1 MFC       0.114000
     37 HD2          0.8880     0.2490    -6.5510 ha         1 MFC       0.173000
     38 HE1         -1.6840    -0.0550   -10.7660 ha         1 MFC       0.105000
     39 HOH         -2.7050    -1.8920    -9.7400 ho         1 MFC       0.459000
@<TRIPOS>BOND
     1     1     2 1   
     2     1    25 1   
     3     1    26 1   
     4     2     3 1   
     5     2     6 1   
     6     2    27 1   
     7     3     4 1   
     8     3     5 1   
     9     3    28 1   
    10     4    29 1   
    11     4    30 1   
    12     4    31 1   
    13     5    32 1   
    14     6     7 2   
    15     6     8 1   
    16     7    11 1   
    17     8     9 1   
    18     8    12 1   
    19     9    10 2   
    20     9    11 1   
    21    11    15 2   
    22    12    13 1   
    23    12    33 1   
    24    12    34 1   
    25    13    14 1   
    26    13    24 1   
    27    15    16 1   
    28    15    35 1   
    29    16    17 ar  
    30    16    18 ar  
    31    17    19 ar  
    32    17    36 1   
    33    18    20 ar  
    34    18    37 1   
    35    19    22 ar  
    36    19    38 1   
    37    20    21 1   
    38    20    22 ar  
    39    22    23 1   
    40    23    39 1   
@<TRIPOS>SUBSTRUCTURE
     1 MFC         1 TEMP              0 ****  ****    0 ROOT
