@<TRIPOS>MOLECULE
MFD
   52    52     1     0     0
SMALL
abcg2


@<TRIPOS>ATOM
      1 N3           2.2630    -0.1860    -4.3510 n8         1 MFD      -0.950200
      2 C2           0.1550     0.2470    -5.4980 c3         1 MFD      -0.186700
      3 C1           0.6700    -0.5800    -6.6930 c          1 MFD       0.735000
      4 O1           0.4500    -1.8090    -6.6490 o          1 MFD      -0.734500
      5 OXT          1.2370     0.0320    -7.6210 o          1 MFD      -0.734500
      6 C3           0.8090    -0.2410    -4.2010 c3         1 MFD       0.194700
      7 CM2         -1.3670     0.1660    -5.4210 c3         1 MFD      -0.062100
      8 C7          -1.2710    -0.0420     0.2420 c2         1 MFD      -0.246200
      9 C6          -0.7100     0.6820    -0.7390 ce         1 MFD      -0.051200
     10 C4           0.3370     0.5330    -3.0050 c2         1 MFD      -0.204200
     11 C           -1.1700     0.5510     4.0590 c3         1 MFD      -0.046100
     12 C9          -0.7520     0.0720     2.6660 c3         1 MFD       0.178300
     13 C8          -1.7780     0.4260     1.5730 c3         1 MFD      -0.025500
     14 C14          2.0190    -0.1320     6.8660 ca         1 MFD      -0.117000
     15 C12          1.9530     1.0610     6.1580 ca         1 MFD      -0.114500
     16 C10          0.9130     1.2840     5.2660 ca         1 MFD      -0.103000
     17 C11         -0.0790     0.3260     5.0660 ca         1 MFD      -0.072300
     18 C13         -0.0030    -0.8650     5.7840 ca         1 MFD      -0.103000
     19 C5           1.0350    -1.0940     6.6770 ca         1 MFD      -0.114500
     20 O9          -0.5370    -1.3240     2.7060 os         1 MFD      -0.460000
     21 CM9          0.7690    -1.7290     2.3820 c3         1 MFD       0.147900
     22 CM8         -3.1660    -0.1590     1.8380 c3         1 MFD      -0.079100
     23 CM6         -0.4890     2.1650    -0.6780 c3         1 MFD      -0.055900
     24 HN31         2.7030    -0.4400    -3.4740 hn         1 MFD       0.370000
     25 HN32         2.5470     0.7700    -4.5320 hn         1 MFD       0.370000
     26 H2           0.4400     1.2960    -5.6470 hc         1 MFD       0.024700
     27 H3           0.5300    -1.2920    -4.0690 h1         1 MFD       0.081700
     28 HM21        -1.6910    -0.8540    -5.2070 hc         1 MFD       0.014700
     29 HM22        -1.7660     0.8120    -4.6380 hc         1 MFD       0.014700
     30 HM23        -1.8250     0.4700    -6.3640 hc         1 MFD       0.014700
     31 H7          -1.3670    -1.1120     0.0720 ha         1 MFD       0.178000
     32 H5          -0.4530    -1.0880    -1.9630 ha         1 MFD       0.174000
     33 H4           0.5400     1.6020    -3.0270 ha         1 MFD       0.152000
     34 H'1         -1.4190     1.6140     4.0020 hc         1 MFD       0.053200
     35 H'2         -2.0770     0.0280     4.3700 hc         1 MFD       0.053200
     36 H9           0.1820     0.5870     2.4010 h1         1 MFD       0.041700
     37 H8          -1.8630     1.5160     1.5800 hc         1 MFD       0.044700
     38 H1           0.8710     2.2190     4.7180 ha         1 MFD       0.114000
     39 H6          -0.7680    -1.6200     5.6470 ha         1 MFD       0.114000
     40 H11          1.0750    -2.0260     7.2290 ha         1 MFD       0.107500
     41 HM91         0.8200    -2.8120     2.4980 h1         1 MFD       0.029700
     42 HM92         1.0360    -1.4810     1.3490 h1         1 MFD       0.029700
     43 HM93         1.5160    -1.2800     3.0460 h1         1 MFD       0.029700
     44 HM81        -3.1340    -1.2470     1.9070 hc         1 MFD       0.033367
     45 HM82        -3.6010     0.2240     2.7610 hc         1 MFD       0.033367
     46 HM83        -3.8470     0.1010     1.0270 hc         1 MFD       0.033367
     47 HM61        -0.8670     2.6130     0.2380 hc         1 MFD       0.036033
     48 HM62         0.5750     2.4040    -0.7460 hc         1 MFD       0.036033
     49 HM63        -0.9750     2.6670    -1.5180 hc         1 MFD       0.036033
     50 C15         -0.2680    -0.0160    -1.9470 ce         1 MFD      -0.230000
     51 H12          2.8290    -0.3080     7.5630 ha         1 MFD       0.106000
     52 H10          2.7110     1.8210     6.3030 ha         1 MFD       0.107500
@<TRIPOS>BOND
     1     1     6 1   
     2     1    24 1   
     3     1    25 1   
     4     2     3 1   
     5     2     6 1   
     6     2     7 1   
     7     2    26 1   
     8     3     4 1   
     9     3     5 1   
    10     6    10 1   
    11     6    27 1   
    12     7    28 1   
    13     7    29 1   
    14     7    30 1   
    15     8     9 2   
    16     8    13 1   
    17     8    31 1   
    18     9    23 1   
    19     9    50 1   
    20    10    33 1   
    21    10    50 2   
    22    11    12 1   
    23    11    17 1   
    24    11    34 1   
    25    11    35 1   
    26    12    13 1   
    27    12    20 1   
    28    12    36 1   
    29    13    22 1   
    30    13    37 1   
    31    14    15 ar  
    32    14    19 ar  
    33    14    51 1   
    34    15    16 ar  
    35    15    52 1   
    36    16    17 ar  
    37    16    38 1   
    38    17    18 ar  
    39    18    19 ar  
    40    18    39 1   
    41    19    40 1   
    42    20    21 1   
    43    21    41 1   
    44    21    42 1   
    45    21    43 1   
    46    22    44 1   
    47    22    45 1   
    48    22    46 1   
    49    23    47 1   
    50    23    48 1   
    51    23    49 1   
    52    32    50 1   
@<TRIPOS>SUBSTRUCTURE
     1 MFD         1 TEMP              0 ****  ****    0 ROOT
