@<TRIPOS>MOLECULE
MFD
   52    52     1     0     0
SMALL
No Charge or Current Charge


@<TRIPOS>ATOM
      1 N3           1.9820    -0.7490    -4.3020 n8         1 MFD      -0.950200
      2 C2           0.4450     0.7560    -5.5550 c3         1 MFD      -0.186700
      3 C1           0.7460     0.0990    -6.9210 c          1 MFD       0.735000
      4 O1           0.0310    -0.8180    -7.3050 o          1 MFD      -0.734500
      5 OXT          1.6480     0.5690    -7.6020 o          1 MFD      -0.734500
      6 C3           0.6020    -0.2640    -4.3990 c3         1 MFD       0.194700
      7 CM2         -0.9610     1.4140    -5.5810 c3         1 MFD      -0.062100
      8 C7          -1.5080    -0.5620     0.1120 c2         1 MFD      -0.246200
      9 C6          -0.7810     0.1980    -0.7430 ce         1 MFD      -0.051200
     10 C4           0.2480     0.3090    -3.0450 c2         1 MFD      -0.204200
     11 C           -1.2150     0.0980     3.9890 c3         1 MFD      -0.046100
     12 C9          -0.8520    -0.4370     2.5690 c3         1 MFD       0.178300
     13 C8          -1.9830    -0.2090     1.5180 c3         1 MFD      -0.025500
     14 C14          2.1860     1.0810     6.5200 ca         1 MFD      -0.117000
     15 C12          2.0580     1.6760     5.2530 ca         1 MFD      -0.114500
     16 C10          0.9600     1.3590     4.4350 ca         1 MFD      -0.103000
     17 C11         -0.0150     0.4390     4.8730 ca         1 MFD      -0.072300
     18 C13          0.1140    -0.1420     6.1510 ca         1 MFD      -0.103000
     19 C5           1.2130     0.1750     6.9690 ca         1 MFD      -0.114500
     20 O9          -0.5840    -1.8610     2.6180 os         1 MFD      -0.460000
     21 CM9          0.6110    -2.2690     3.3100 c3         1 MFD       0.147900
     22 CM8         -3.3050    -0.9470     1.8550 c3         1 MFD      -0.079100
     23 CM6         -0.2770     1.5990    -0.4010 c3         1 MFD      -0.055900
     24 HN31         2.0450    -1.3610    -3.4820 hn         1 MFD       0.370000
     25 HN32         2.5830     0.0430    -4.0570 hn         1 MFD       0.370000
     26 H2           1.1720     1.5640    -5.3990 hc         1 MFD       0.024700
     27 H3          -0.0550    -1.1240    -4.6040 h1         1 MFD       0.081700
     28 HM21        -1.7490     0.6540    -5.6550 hc         1 MFD       0.014700
     29 HM22        -1.1390     2.0060    -4.6760 hc         1 MFD       0.014700
     30 HM23        -1.0520     2.0870    -6.4420 hc         1 MFD       0.014700
     31 H7          -1.8100    -1.5640    -0.1970 ha         1 MFD       0.178000
     32 H5          -0.7330    -1.3770    -2.2520 ha         1 MFD       0.174000
     33 H4           0.5750     1.3390    -2.9120 ha         1 MFD       0.152000
     34 H'1         -1.8160     1.0080     3.8760 hc         1 MFD       0.053200
     35 H'2         -1.8700    -0.6270     4.4860 hc         1 MFD       0.053200
     36 H9           0.0350     0.0980     2.2060 h1         1 MFD       0.041700
     37 H8          -2.2320     0.8590     1.5350 hc         1 MFD       0.044700
     38 H1           0.8670     1.8350     3.4610 ha         1 MFD       0.114000
     39 H6          -0.6340    -0.8450     6.5110 ha         1 MFD       0.114000
     40 H11          1.3080    -0.2830     7.9520 ha         1 MFD       0.107500
     41 HM91         0.8170    -3.3290     3.1140 h1         1 MFD       0.029700
     42 HM92         1.4790    -1.6860     2.9740 h1         1 MFD       0.029700
     43 HM93         0.5040    -2.1490     4.3940 h1         1 MFD       0.029700
     44 HM81        -3.1580    -2.0330     1.8860 hc         1 MFD       0.033367
     45 HM82        -3.7020    -0.6250     2.8240 hc         1 MFD       0.033367
     46 HM83        -4.0660    -0.7300     1.0960 hc         1 MFD       0.033367
     47 HM61        -0.4250     1.8670     0.6500 hc         1 MFD       0.036033
     48 HM62         0.7990     1.6900    -0.5910 hc         1 MFD       0.036033
     49 HM63        -0.7890     2.3570    -1.0040 hc         1 MFD       0.036033
     50 C15         -0.4180    -0.3480    -2.0650 ce         1 MFD      -0.230000
     51 H12          3.0360     1.3270     7.1530 ha         1 MFD       0.106000
     52 H10          2.8070     2.3840     4.9070 ha         1 MFD       0.107500
@<TRIPOS>BOND
     1     1     6 1   
     2     1    24 1   
     3     1    25 1   
     4     2     3 1   
     5     2     6 1   
     6     2     7 1   
     7     2    26 1   
     8     3     4 1   
     9     3     5 1   
    10     6    10 1   
    11     6    27 1   
    12     7    28 1   
    13     7    29 1   
    14     7    30 1   
    15     8     9 2   
    16     8    13 1   
    17     8    31 1   
    18     9    23 1   
    19     9    50 1   
    20    10    33 1   
    21    10    50 2   
    22    11    12 1   
    23    11    17 1   
    24    11    34 1   
    25    11    35 1   
    26    12    13 1   
    27    12    20 1   
    28    12    36 1   
    29    13    22 1   
    30    13    37 1   
    31    14    15 ar  
    32    14    19 ar  
    33    14    51 1   
    34    15    16 ar  
    35    15    52 1   
    36    16    17 ar  
    37    16    38 1   
    38    17    18 ar  
    39    18    19 ar  
    40    18    39 1   
    41    19    40 1   
    42    20    21 1   
    43    21    41 1   
    44    21    42 1   
    45    21    43 1   
    46    22    44 1   
    47    22    45 1   
    48    22    46 1   
    49    23    47 1   
    50    23    48 1   
    51    23    49 1   
    52    32    50 1   
@<TRIPOS>SUBSTRUCTURE
     1 MFD         1 TEMP              0 ****  ****    0 ROOT
