@<TRIPOS>MOLECULE
MFE
   31    33     1     0     0
SMALL
abcg2


@<TRIPOS>ATOM
      1 C2          -4.3850     0.1910    -0.1930 ca         1 MFE       0.128000
      2 C3          -3.5620     0.0110    -1.2950 ca         1 MFE      -0.107000
      3 C4          -2.3040    -0.5420    -1.1120 ca         1 MFE      -0.085500
      4 C5          -1.8640    -0.9180     0.1550 ca         1 MFE      -0.119300
      5 C6          -2.7080    -0.7240     1.2420 ca         1 MFE      -0.085500
      6 C7          -3.9710    -0.1720     1.0780 ca         1 MFE      -0.107000
      7 C8          -0.4900    -1.5010     0.3380 c3         1 MFE       0.277100
      8 C12          3.5090    -2.1790    -0.2420 ca         1 MFE       0.171900
      9 N13          4.4760    -1.3110    -0.2940 nb         1 MFE      -0.212000
     10 C15          5.1060     0.9920    -0.2180 ca         1 MFE      -0.098000
     11 C16          4.7680     2.3170    -0.1050 ca         1 MFE      -0.082000
     12 C17          3.4270     2.7000     0.0620 ca         1 MFE      -0.126000
     13 C18          2.4420     1.7460     0.1180 ca         1 MFE      -0.073000
     14 C19          2.7670     0.3820     0.0100 ca         1 MFE      -0.177000
     15 C10          1.8100    -0.6960     0.0620 ca         1 MFE       0.402900
     16 C14          4.1110    -0.0040    -0.1670 ca         1 MFE       0.052000
     17 N11          2.2010    -1.9510    -0.0650 nb         1 MFE      -0.296000
     18 N9           0.5050    -0.4520     0.2280 nu         1 MFE      -0.924100
     19 CL1         -5.9600     0.8800    -0.4120 cl         1 MFE      -0.198000
     20 H31         -3.8960     0.2920    -2.2840 ha         1 MFE       0.132500
     21 H41         -1.6620    -0.6840    -1.9720 ha         1 MFE       0.123000
     22 H61         -2.3810    -1.0050     2.2350 ha         1 MFE       0.123000
     23 H71         -4.6200    -0.0280     1.9310 ha         1 MFE       0.132500
     24 H81         -0.4190    -2.0060     1.3060 h1         1 MFE       0.066700
     25 H82         -0.2940    -2.2520    -0.4280 h1         1 MFE       0.066700
     26 H151         6.1360     0.6870    -0.3520 ha         1 MFE       0.135000
     27 H161         5.5390     3.0750    -0.1480 ha         1 MFE       0.117000
     28 H171         3.1710     3.7470     0.1460 ha         1 MFE       0.116000
     29 H181         1.4160     2.0680     0.2440 ha         1 MFE       0.105000
     30 H91          0.2100     0.4800     0.4640 hn         1 MFE       0.498000
     31 H121         3.7840    -3.2240    -0.3470 h5         1 MFE       0.043100
@<TRIPOS>BOND
     1     1     2 ar  
     2     1     6 ar  
     3     1    19 1   
     4     2     3 ar  
     5     2    20 1   
     6     3     4 ar  
     7     3    21 1   
     8     4     5 ar  
     9     4     7 1   
    10     5     6 ar  
    11     5    22 1   
    12     6    23 1   
    13     7    18 1   
    14     7    24 1   
    15     7    25 1   
    16     8     9 ar  
    17     8    17 ar  
    18     8    31 1   
    19     9    16 ar  
    20    10    11 ar  
    21    10    16 ar  
    22    10    26 1   
    23    11    12 ar  
    24    11    27 1   
    25    12    13 ar  
    26    12    28 1   
    27    13    14 ar  
    28    13    29 1   
    29    14    15 ar  
    30    14    16 ar  
    31    15    17 ar  
    32    15    18 1   
    33    18    30 1   
@<TRIPOS>SUBSTRUCTURE
     1 MFE         1 TEMP              0 ****  ****    0 ROOT
