@<TRIPOS>MOLECULE
MFE
   31    33     1     0     0
SMALL
No Charge or Current Charge


@<TRIPOS>ATOM
      1 C2          -4.4240     0.3080    -0.0030 ca         1 MFE       0.128000
      2 C3          -3.7940     0.0010    -1.2200 ca         1 MFE      -0.107000
      3 C4          -2.5310    -0.6190    -1.2210 ca         1 MFE      -0.085500
      4 C5          -1.8950    -0.9350    -0.0040 ca         1 MFE      -0.119300
      5 C6          -2.5320    -0.6220     1.2140 ca         1 MFE      -0.085500
      6 C7          -3.7950    -0.0020     1.2140 ca         1 MFE      -0.107000
      7 C8          -0.5270    -1.6030    -0.0040 c3         1 MFE       0.277100
      8 C12          3.6510    -2.2370    -0.0020 ca         1 MFE       0.171900
      9 N13          4.6040    -1.2850    -0.0000 nb         1 MFE      -0.212000
     10 C15          5.1410     1.0450     0.0040 ca         1 MFE      -0.098000
     11 C16          4.7270     2.3880     0.0060 ca         1 MFE      -0.082000
     12 C17          3.3590     2.6990     0.0060 ca         1 MFE      -0.126000
     13 C18          2.4020     1.6720     0.0030 ca         1 MFE      -0.073000
     14 C19          2.8140     0.3180     0.0010 ca         1 MFE      -0.177000
     15 C10          1.9000    -0.7640    -0.0010 ca         1 MFE       0.402900
     16 C14          4.1960     0.0020     0.0020 ca         1 MFE       0.052000
     17 N11          2.3200    -2.0410    -0.0030 nb         1 MFE      -0.296000
     18 N9           0.5200    -0.5730    -0.0020 nu         1 MFE      -0.924100
     19 Cl1         -6.0020     1.0840    -0.0020 cl         1 MFE      -0.198000
     20 H31         -4.2820     0.2440    -2.1600 ha         1 MFE       0.132500
     21 H41         -2.0470    -0.8510    -2.1680 ha         1 MFE       0.123000
     22 H61         -2.0490    -0.8580     2.1610 ha         1 MFE       0.123000
     23 H71         -4.2840     0.2380     2.1540 ha         1 MFE       0.132500
     24 H81         -0.4330    -2.2480     0.8820 h1         1 MFE       0.066700
     25 H82         -0.4320    -2.2450    -0.8920 h1         1 MFE       0.066700
     26 H151         6.2030     0.8130     0.0050 ha         1 MFE       0.135000
     27 H161         5.4670     3.1850     0.0080 ha         1 MFE       0.117000
     28 H171         3.0390     3.7390     0.0070 ha         1 MFE       0.116000
     29 H181         1.3490     1.9420     0.0030 ha         1 MFE       0.105000
     30 H91          0.2040     0.3940    -0.0000 hn         1 MFE       0.498000
     31 H121         3.9930    -3.2710    -0.0040 h5         1 MFE       0.043100
@<TRIPOS>BOND
     1     1     2 ar  
     2     1     6 ar  
     3     1    19 1   
     4     2     3 ar  
     5     2    20 1   
     6     3     4 ar  
     7     3    21 1   
     8     4     5 ar  
     9     4     7 1   
    10     5     6 ar  
    11     5    22 1   
    12     6    23 1   
    13     7    18 1   
    14     7    24 1   
    15     7    25 1   
    16     8     9 ar  
    17     8    17 ar  
    18     8    31 1   
    19     9    16 ar  
    20    10    11 ar  
    21    10    16 ar  
    22    10    26 1   
    23    11    12 ar  
    24    11    27 1   
    25    12    13 ar  
    26    12    28 1   
    27    13    14 ar  
    28    13    29 1   
    29    14    15 ar  
    30    14    16 ar  
    31    15    17 ar  
    32    15    18 1   
    33    18    30 1   
@<TRIPOS>SUBSTRUCTURE
     1 MFE         1 TEMP              0 ****  ****    0 ROOT
