@<TRIPOS>MOLECULE
MFG
   25    25     1     0     0
SMALL
No Charge or Current Charge


@<TRIPOS>ATOM
      1 F1          52.0780   157.0910    29.1600 f          1 MFG      -0.181000
      2 C2          52.2400   156.1890    28.1670 ca         1 MFG       0.168000
      3 C3          52.0130   154.8270    28.4170 ca         1 MFG      -0.149000
      4 C4          52.1820   153.8880    27.3840 ca         1 MFG      -0.082000
      5 C5          52.5780   154.3110    26.0990 ca         1 MFG      -0.095300
      6 C6          52.7670   153.2940    24.9810 c3         1 MFG      -0.028100
      7 C7          54.2100   152.7530    24.9250 c3         1 MFG      -0.036200
      8 C8          54.4120   151.7330    23.8120 ce         1 MFG      -0.208800
      9 C9          54.1460   150.3240    24.1810 ce         1 MFG       0.466500
     10 N10         54.2970   149.3800    23.3110 n2         1 MFG      -0.748100
     11 C13         52.8060   155.6810    25.8580 ca         1 MFG      -0.082000
     12 C14         52.6370   156.6190    26.8920 ca         1 MFG      -0.149000
     13 CAA         54.8150   152.1300    22.5780 c2         1 MFG      -0.255000
     14 H3          51.7080   154.5020    29.4080 ha         1 MFG       0.131500
     15 H14         52.8120   157.6760    26.7060 ha         1 MFG       0.131500
     16 H4          52.0070   152.8330    27.5820 ha         1 MFG       0.115000
     17 H6C1        52.0730   152.4550    25.1140 hc         1 MFG       0.051200
     18 H6C2        52.5160   153.7460    24.0140 hc         1 MFG       0.051200
     19 H13         53.1160   156.0180    24.8710 ha         1 MFG       0.115000
     20 H7C1        54.8980   153.5980    24.7960 hc         1 MFG       0.050200
     21 H7C2        54.4610   152.3120    25.8980 hc         1 MFG       0.050200
     22 H9          53.8150   150.1010    25.1970 h4         1 MFG      -0.041200
     23 HAA         55.0020   153.1780    22.3430 ha         1 MFG       0.174000
     24 H10         54.0630   148.4800    23.7540 hn         1 MFG       0.376400
     25 HAB         54.9710   151.4230    21.7610 ha         1 MFG       0.174000
@<TRIPOS>BOND
     1     1     2 1   
     2     2     3 ar  
     3     2    12 ar  
     4     3     4 ar  
     5     3    14 1   
     6     4     5 ar  
     7     4    16 1   
     8     5     6 1   
     9     5    11 ar  
    10     6     7 1   
    11     6    17 1   
    12     6    18 1   
    13     7     8 1   
    14     7    20 1   
    15     7    21 1   
    16     8     9 1   
    17     8    13 2   
    18     9    10 2   
    19     9    22 1   
    20    10    24 1   
    21    11    12 ar  
    22    11    19 1   
    23    12    15 1   
    24    13    23 1   
    25    13    25 1   
@<TRIPOS>SUBSTRUCTURE
     1 MFG         1 TEMP              0 ****  ****    0 ROOT
