@<TRIPOS>MOLECULE
MFG
   25    25     1     0     0
SMALL
bcc


@<TRIPOS>ATOM
      1 F1          52.0740   157.0230    29.1020 f          1 MFG      -0.145900
      2 C2          52.2340   156.1170    28.1200 ca         1 MFG       0.132900
      3 C3          52.1280   154.7740    28.4240 ca         1 MFG      -0.167000
      4 C4          52.2940   153.8500    27.4020 ca         1 MFG      -0.100000
      5 C5          52.5590   154.2520    26.0950 ca         1 MFG      -0.095300
      6 C6          52.7830   153.2390    25.0080 c3         1 MFG      -0.028100
      7 C7          54.2660   152.8570    24.8840 c3         1 MFG      -0.036200
      8 C8          54.4940   151.8100    23.8320 ce         1 MFG      -0.208800
      9 C9          53.9950   150.4540    24.1500 ce         1 MFG       0.466500
     10 N10         53.8540   149.5500    23.2750 n2         1 MFG      -0.748100
     11 C13         52.6580   155.6160    25.8320 ca         1 MFG      -0.100000
     12 C14         52.4960   156.5590    26.8380 ca         1 MFG      -0.167000
     13 CAA         55.1060   152.0680    22.6770 c2         1 MFG      -0.155000
     14 H3          51.9170   154.4540    29.4360 ha         1 MFG       0.149500
     15 H14         52.5710   157.6180    26.6260 ha         1 MFG       0.149500
     16 H4          52.2070   152.7940    27.6310 ha         1 MFG       0.133000
     17 H6C1        52.1870   152.3450    25.2090 hc         1 MFG       0.051200
     18 H6C2        52.4400   153.6340    24.0490 hc         1 MFG       0.051200
     19 H13         52.8620   155.9550    24.8240 ha         1 MFG       0.133000
     20 H7C1        54.8510   153.7500    24.6540 hc         1 MFG       0.050200
     21 H7C2        54.6190   152.4890    25.8530 hc         1 MFG       0.050200
     22 H9          53.7640   150.2880    25.2070 h4         1 MFG      -0.041200
     23 HAA         55.4770   153.0580    22.4440 ha         1 MFG       0.124000
     24 H10         53.5220   148.6910    23.7040 hn         1 MFG       0.376400
     25 HAB         55.2640   151.2970    21.9340 ha         1 MFG       0.124000
@<TRIPOS>BOND
     1     1     2 1   
     2     2     3 ar  
     3     2    12 ar  
     4     3     4 ar  
     5     3    14 1   
     6     4     5 ar  
     7     4    16 1   
     8     5     6 1   
     9     5    11 ar  
    10     6     7 1   
    11     6    17 1   
    12     6    18 1   
    13     7     8 1   
    14     7    20 1   
    15     7    21 1   
    16     8     9 1   
    17     8    13 2   
    18     9    10 2   
    19     9    22 1   
    20    10    24 1   
    21    11    12 ar  
    22    11    19 1   
    23    12    15 1   
    24    13    23 1   
    25    13    25 1   
@<TRIPOS>SUBSTRUCTURE
     1 MFG         1 TEMP              0 ****  ****    0 ROOT
