@<TRIPOS>MOLECULE
MFH
   28    28     1     0     0
SMALL
bcc


@<TRIPOS>ATOM
      1 C          -29.3980    37.1550   -16.9110 c          1 MFH       1.008600
      2 O          -29.7420    38.3160   -16.6010 o          1 MFH      -0.852300
      3 N1         -25.5240    37.7640   -16.5010 n8         1 MFH      -0.901800
      4 C2         -27.3800    38.1180   -18.0260 c3         1 MFH       0.135000
      5 N2         -28.1380    37.0060   -17.5170 ns         1 MFH      -0.650900
      6 CA         -26.4650    38.7610   -16.9850 c3         1 MFH       0.145500
      7 CB         -25.7140    39.9420   -17.6060 c3         1 MFH      -0.030100
      8 CG         -24.8000    40.6310   -16.6320 ca         1 MFH      -0.090300
      9 CD1        -25.3000    41.5210   -15.6840 ca         1 MFH      -0.089000
     10 CD2        -23.4320    40.3700   -16.6070 ca         1 MFH      -0.089000
     11 CE1        -22.5920    40.9630   -15.6770 ca         1 MFH      -0.198000
     12 CE2        -24.4760    42.1240   -14.7450 ca         1 MFH      -0.198000
     13 CZ         -23.1110    41.8450   -14.7330 ca         1 MFH       0.114100
     14 OH         -22.2570    42.3940   -13.8430 oh         1 MFH      -0.507100
     15 H5         -26.7540    37.7560   -18.8480 h1         1 MFH       0.014200
     16 H6         -28.0350    38.8900   -18.4430 h1         1 MFH       0.014200
     17 H7         -27.9700    36.1150   -17.9530 hn         1 MFH       0.262500
     18 H8         -27.1050    39.1600   -16.1830 h1         1 MFH       0.050700
     19 H9         -25.1380    39.5810   -18.4630 hc         1 MFH       0.045200
     20 H10        -26.4490    40.6530   -17.9940 hc         1 MFH       0.045200
     21 H11        -26.3580    41.7540   -15.6750 ha         1 MFH       0.138000
     22 H12        -23.0080    39.6850   -17.3320 ha         1 MFH       0.138000
     23 H13        -21.5310    40.7430   -15.6800 ha         1 MFH       0.127500
     24 H14        -24.8980    42.8150   -14.0230 ha         1 MFH       0.127500
     25 H15        -22.7330    42.9750   -13.2380 ho         1 MFH       0.416000
     26 OXT        -30.0410    36.0990   -16.7250 o          1 MFH      -0.852300
     27 H2         -25.0220    38.1260   -15.6990 hn         1 MFH       0.338300
     28 H3         -26.0550    36.9720   -16.1590 hn         1 MFH       0.338300
@<TRIPOS>BOND
     1     1     2 1   
     2     1     5 1   
     3     1    26 1   
     4     3     6 1   
     5     3    27 1   
     6     3    28 1   
     7     4     5 1   
     8     4     6 1   
     9     4    15 1   
    10     4    16 1   
    11     5    17 1   
    12     6     7 1   
    13     6    18 1   
    14     7     8 1   
    15     7    19 1   
    16     7    20 1   
    17     8     9 ar  
    18     8    10 ar  
    19     9    12 ar  
    20     9    21 1   
    21    10    11 ar  
    22    10    22 1   
    23    11    13 ar  
    24    11    23 1   
    25    12    13 ar  
    26    12    24 1   
    27    13    14 1   
    28    14    25 1   
@<TRIPOS>SUBSTRUCTURE
     1 MFH         1 TEMP              0 ****  ****    0 ROOT
