@<TRIPOS>MOLECULE
MFH
   28    28     1     0     0
SMALL
No Charge or Current Charge


@<TRIPOS>ATOM
      1 C          -29.3840    37.2670   -16.8100 c          1 MFH       0.731000
      2 O          -29.7060    38.4010   -16.5090 o          1 MFH      -0.747000
      3 N1         -25.5590    37.6650   -16.5180 n8         1 MFH      -1.012200
      4 C2         -27.4290    38.1260   -18.1490 c3         1 MFH       0.135000
      5 N2         -28.3060    37.0710   -17.6210 ns         1 MFH      -0.583900
      6 CA         -26.4440    38.7140   -17.0900 c3         1 MFH       0.145500
      7 CB         -25.6090    39.8860   -17.6670 c3         1 MFH      -0.030100
      8 CG         -24.7320    40.5800   -16.6260 ca         1 MFH      -0.090300
      9 CD1        -25.3180    41.3920   -15.6340 ca         1 MFH      -0.071000
     10 CD2        -23.3310    40.4230   -16.6520 ca         1 MFH      -0.071000
     11 CE1        -22.5290    41.0690   -15.6940 ca         1 MFH      -0.180000
     12 CE2        -24.5140    42.0360   -14.6770 ca         1 MFH      -0.180000
     13 CZ         -23.1200    41.8730   -14.7090 ca         1 MFH       0.114100
     14 OH         -22.3360    42.4950   -13.7850 oh         1 MFH      -0.546100
     15 H5         -26.8550    37.7040   -18.9850 h1         1 MFH       0.014200
     16 H6         -28.0560    38.9320   -18.5520 h1         1 MFH       0.014200
     17 H7         -28.0880    36.1100   -17.8410 hn         1 MFH       0.262500
     18 H8         -27.0510    39.1160   -16.2670 h1         1 MFH       0.050700
     19 H9         -24.9990    39.5160   -18.5000 hc         1 MFH       0.045200
     20 H10        -26.2950    40.6220   -18.1040 hc         1 MFH       0.045200
     21 H11        -26.3980    41.5240   -15.6060 ha         1 MFH       0.120000
     22 H12        -22.8640    39.8000   -17.4120 ha         1 MFH       0.120000
     23 H13        -21.4500    40.9430   -15.7180 ha         1 MFH       0.109500
     24 H14        -24.9800    42.6590   -13.9180 ha         1 MFH       0.109500
     25 H15        -22.9160    43.0090   -13.1830 ho         1 MFH       0.455000
     26 OXT        -29.9730    36.2690   -16.4490 o          1 MFH      -0.747000
     27 H2         -25.0320    38.0750   -15.7390 hn         1 MFH       0.393500
     28 H3         -26.1520    36.9570   -16.0710 hn         1 MFH       0.393500
@<TRIPOS>BOND
     1     1     2 1   
     2     1     5 1   
     3     1    26 1   
     4     3     6 1   
     5     3    27 1   
     6     3    28 1   
     7     4     5 1   
     8     4     6 1   
     9     4    15 1   
    10     4    16 1   
    11     5    17 1   
    12     6     7 1   
    13     6    18 1   
    14     7     8 1   
    15     7    19 1   
    16     7    20 1   
    17     8     9 ar  
    18     8    10 ar  
    19     9    12 ar  
    20     9    21 1   
    21    10    11 ar  
    22    10    22 1   
    23    11    13 ar  
    24    11    23 1   
    25    12    13 ar  
    26    12    24 1   
    27    13    14 1   
    28    14    25 1   
@<TRIPOS>SUBSTRUCTURE
     1 MFH         1 TEMP              0 ****  ****    0 ROOT
