@<TRIPOS>MOLECULE
MFJ
   55    56     1     0     0
SMALL
abcg2


@<TRIPOS>ATOM
      1 CAE          3.1820     3.2710    -2.0240 ca         1 MFJ      -0.138000
      2 CAF          2.0680     2.4120    -1.9320 ca         1 MFJ      -0.169000
      3 CAG          5.7770     0.1910     0.6420 ca         1 MFJ      -0.092000
      4 CAH          4.6750    -0.6850     0.7210 ca         1 MFJ      -0.083000
      5 CAI          4.3560     2.9200    -1.4190 ca         1 MFJ      -0.121000
      6 CAJ          5.6840     1.3580    -0.0610 ca         1 MFJ      -0.170000
      7 CAK          2.1520     1.2320    -1.2450 ca         1 MFJ      -0.048000
      8 CAQ         -8.1830    -2.1880    -1.3300 c3         1 MFJ      -0.090100
      9 CAR         -8.1860    -0.6670    -1.2770 c3         1 MFJ      -0.071400
     10 CAS         -6.7740    -0.0760    -1.2820 c3         1 MFJ      -0.045200
     11 CAT         -6.7910     1.4200    -1.3050 c2         1 MFJ      -0.226200
     12 CAU         -6.3490     2.2590    -0.3690 c2         1 MFJ      -0.207200
     13 CAV         -5.6880     1.9130     0.9280 c3         1 MFJ      -0.046200
     14 CAW         -4.2260     2.3850     0.9640 c3         1 MFJ      -0.020200
     15 CAX         -3.5990     2.1360     2.2980 c2         1 MFJ      -0.293200
     16 CAY         -2.5420     1.3610     2.5710 ce         1 MFJ      -0.110000
     17 CAZ         -1.7490     0.6110     1.6110 ce         1 MFJ      -0.293000
     18 CBA         -0.7240    -0.1750     1.9550 c2         1 MFJ      -0.100200
     19 CBD          3.4810    -0.4050     0.1040 ca         1 MFJ       0.042700
     20 CBE          4.4720     1.7060    -0.7000 ca         1 MFJ      -0.047000
     21 CBF          3.3550     0.8280    -0.6110 ca         1 MFJ      -0.034000
     22 CBG          2.2980    -1.3400     0.2180 c3         1 MFJ      -0.086400
     23 OBC          1.4300    -0.7270     1.1780 os         1 MFJ      -0.462000
     24 PBH          2.6620    -3.1540     0.5710 p5         1 MFJ       1.272500
     25 H1           3.1040     4.2010    -2.5710 ha         1 MFJ       0.074000
     26 H2           1.1360     2.6920    -2.4080 ha         1 MFJ       0.083000
     27 H3           6.7010    -0.0710     1.1420 ha         1 MFJ       0.087000
     28 H4           4.7600    -1.5980     1.2960 ha         1 MFJ       0.191000
     29 H5           5.2200     3.5720    -1.4790 ha         1 MFJ       0.078000
     30 H6           6.5300     2.0330    -0.1310 ha         1 MFJ       0.073000
     31 H7           1.2760     0.6000    -1.1950 ha         1 MFJ       0.126000
     32 H8          -7.6910    -2.5490    -2.2350 hc         1 MFJ       0.031367
     33 H9          -7.6520    -2.6120    -0.4750 hc         1 MFJ       0.031367
     34 H10         -9.1970    -2.5890    -1.3220 hc         1 MFJ       0.031367
     35 H11         -8.7470    -0.2700    -2.1290 hc         1 MFJ       0.029200
     36 H12         -8.7110    -0.3270    -0.3810 hc         1 MFJ       0.029200
     37 H13         -6.2210    -0.4560    -0.4200 hc         1 MFJ       0.054700
     38 H14         -6.2480    -0.4400    -2.1720 hc         1 MFJ       0.054700
     39 H15         -7.2420     1.8570    -2.1930 ha         1 MFJ       0.150000
     40 H16         -6.4530     3.3240    -0.5600 ha         1 MFJ       0.154000
     41 H17         -6.2310     2.3940     1.7480 hc         1 MFJ       0.042700
     42 H18         -5.7240     0.8400     1.1230 hc         1 MFJ       0.042700
     43 H19         -3.6730     1.9000     0.1590 hc         1 MFJ       0.041200
     44 H20         -4.2000     3.4590     0.7520 hc         1 MFJ       0.041200
     45 H21         -4.0820     2.6340     3.1340 ha         1 MFJ       0.142000
     46 H22         -2.2300     1.2770     3.6080 ha         1 MFJ       0.157000
     47 H23         -2.0070     0.6950     0.5600 ha         1 MFJ       0.167000
     48 H24         -0.4520    -0.2700     3.0040 ha         1 MFJ       0.169000
     49 H25         -0.1470    -2.0580     1.1290 h1         1 MFJ       0.053200
     50 H26         -0.2500    -0.7460    -0.0410 h1         1 MFJ       0.053200
     51 H27          1.7860    -1.3480    -0.7580 h1         1 MFJ       0.014700
     52 OAB          3.2940    -3.2260     1.9670 o          1 MFJ      -0.914500
     53 CBB          0.0610    -0.9920     0.9870 c3         1 MFJ       0.177800
     54 OAC          1.2800    -3.8200     0.4970 o          1 MFJ      -0.914500
     55 OAD          3.5980    -3.5540    -0.5740 o          1 MFJ      -0.914500
@<TRIPOS>BOND
     1     1     2 ar  
     2     1     5 ar  
     3     1    25 1   
     4     2     7 ar  
     5     2    26 1   
     6     3     4 ar  
     7     3     6 ar  
     8     3    27 1   
     9     4    19 ar  
    10     4    28 1   
    11     5    20 ar  
    12     5    29 1   
    13     6    20 ar  
    14     6    30 1   
    15     7    21 ar  
    16     7    31 1   
    17     8     9 1   
    18     8    32 1   
    19     8    33 1   
    20     8    34 1   
    21     9    10 1   
    22     9    35 1   
    23     9    36 1   
    24    10    11 1   
    25    10    37 1   
    26    10    38 1   
    27    11    12 2   
    28    11    39 1   
    29    12    13 1   
    30    12    40 1   
    31    13    14 1   
    32    13    41 1   
    33    13    42 1   
    34    14    15 1   
    35    14    43 1   
    36    14    44 1   
    37    15    16 2   
    38    15    45 1   
    39    16    17 1   
    40    16    46 1   
    41    17    18 2   
    42    17    47 1   
    43    18    48 1   
    44    18    53 1   
    45    19    21 ar  
    46    19    22 1   
    47    20    21 ar  
    48    22    23 1   
    49    22    24 1   
    50    22    51 1   
    51    23    53 1   
    52    24    52 1   
    53    24    54 1   
    54    24    55 1   
    55    49    53 1   
    56    50    53 1   
@<TRIPOS>SUBSTRUCTURE
     1 MFJ         1 TEMP              0 ****  ****    0 ROOT
