@<TRIPOS>MOLECULE
MFJ
   55    56     1     0     0
SMALL
No Charge or Current Charge


@<TRIPOS>ATOM
      1 CAE          1.8180     0.8690    -4.1920 ca         1 MFJ      -0.138000
      2 CAF          1.3200    -0.3930    -3.8420 ca         1 MFJ      -0.169000
      3 CAG          2.0840     2.1250     0.5060 ca         1 MFJ      -0.092000
      4 CAH          1.5580     0.8810     0.8850 ca         1 MFJ      -0.083000
      5 CAI          2.1280     1.7980    -3.1880 ca         1 MFJ      -0.121000
      6 CAJ          2.2630     2.4230    -0.8500 ca         1 MFJ      -0.170000
      7 CAK          1.1180    -0.7260    -2.4910 ca         1 MFJ      -0.048000
      8 CAQ         -2.5960    -0.6320    -2.0950 c3         1 MFJ      -0.090100
      9 CAR         -3.5570     0.5570    -1.9010 c3         1 MFJ      -0.071400
     10 CAS         -2.9350     1.7120    -1.0880 c3         1 MFJ      -0.045200
     11 CAT         -3.9080     2.8570    -0.8650 c2         1 MFJ      -0.226200
     12 CAU         -4.7770     2.9890     0.1530 c2         1 MFJ      -0.207200
     13 CAV         -5.0180     1.9990     1.2800 c3         1 MFJ      -0.046200
     14 CAW         -4.2540     2.3680     2.5700 c3         1 MFJ      -0.020200
     15 CAX         -4.4310     1.3360     3.6730 c2         1 MFJ      -0.293200
     16 CAY         -3.8120     0.1400     3.7840 ce         1 MFJ      -0.110000
     17 CAZ         -2.8380    -0.3790     2.8150 ce         1 MFJ      -0.293000
     18 CBA         -2.2190    -1.5760     2.9220 c2         1 MFJ      -0.100200
     19 CBD          1.1990    -0.0890    -0.0800 ca         1 MFJ       0.042700
     20 CBE          1.9310     1.4730    -1.8320 ca         1 MFJ      -0.047000
     21 CBF          1.4070     0.2060    -1.4610 ca         1 MFJ      -0.034000
     22 CBG          0.5790    -1.4080     0.4180 c3         1 MFJ      -0.086400
     23 OBC         -0.3270    -1.0950     1.5220 os         1 MFJ      -0.462000
     24 PBH          1.9020    -2.7190     0.7930 p5         1 MFJ       1.272500
     25 H1           1.9720     1.1240    -5.2380 ha         1 MFJ       0.074000
     26 H2           1.0900    -1.1200    -4.6190 ha         1 MFJ       0.083000
     27 H3           2.3480     2.8590     1.2660 ha         1 MFJ       0.087000
     28 H4           1.4190     0.6690     1.9430 ha         1 MFJ       0.191000
     29 H5           2.5230     2.7720    -3.4660 ha         1 MFJ       0.078000
     30 H6           2.6670     3.3920    -1.1360 ha         1 MFJ       0.073000
     31 H7           0.7470    -1.7220    -2.2690 ha         1 MFJ       0.126000
     32 H8          -1.7130    -0.3240    -2.6670 hc         1 MFJ       0.031367
     33 H9          -2.2640    -1.0260    -1.1270 hc         1 MFJ       0.031367
     34 H10         -3.0930    -1.4420    -2.6430 hc         1 MFJ       0.031367
     35 H11         -3.8680     0.9310    -2.8840 hc         1 MFJ       0.029200
     36 H12         -4.4620     0.2020    -1.3940 hc         1 MFJ       0.029200
     37 H13         -2.5820     1.3220    -0.1270 hc         1 MFJ       0.054700
     38 H14         -2.0410     2.0800    -1.6070 hc         1 MFJ       0.054700
     39 H15         -3.8450     3.6400    -1.6230 ha         1 MFJ       0.150000
     40 H16         -5.4140     3.8750     0.2030 ha         1 MFJ       0.154000
     41 H17         -6.0910     1.9460     1.5020 hc         1 MFJ       0.042700
     42 H18         -4.7270     0.9890     0.9710 hc         1 MFJ       0.042700
     43 H19         -3.1890     2.4940     2.3360 hc         1 MFJ       0.041200
     44 H20         -4.6040     3.3480     2.9190 hc         1 MFJ       0.041200
     45 H21         -5.1450     1.6380     4.4410 ha         1 MFJ       0.142000
     46 H22         -4.0370    -0.5020     4.6400 ha         1 MFJ       0.157000
     47 H23         -2.6070     0.2540     1.9590 ha         1 MFJ       0.167000
     48 H24         -2.4250    -2.2360     3.7670 ha         1 MFJ       0.169000
     49 H25         -0.6690    -2.9740     2.4040 h1         1 MFJ       0.053200
     50 H26         -1.7660    -2.5570     1.0680 h1         1 MFJ       0.053200
     51 H27         -0.0240    -1.8430    -0.3850 h1         1 MFJ       0.014700
     52 OAB          2.5530    -2.4270     2.1060 o          1 MFJ      -0.914500
     53 CBB         -1.2210    -2.1510     1.9310 c3         1 MFJ       0.177800
     54 OAC          1.2610    -4.0690     0.8440 o          1 MFJ      -0.914500
     55 OAD          2.9380    -2.7180    -0.2830 o          1 MFJ      -0.914500
@<TRIPOS>BOND
     1     1     2 ar  
     2     1     5 ar  
     3     1    25 1   
     4     2     7 ar  
     5     2    26 1   
     6     3     4 ar  
     7     3     6 ar  
     8     3    27 1   
     9     4    19 ar  
    10     4    28 1   
    11     5    20 ar  
    12     5    29 1   
    13     6    20 ar  
    14     6    30 1   
    15     7    21 ar  
    16     7    31 1   
    17     8     9 1   
    18     8    32 1   
    19     8    33 1   
    20     8    34 1   
    21     9    10 1   
    22     9    35 1   
    23     9    36 1   
    24    10    11 1   
    25    10    37 1   
    26    10    38 1   
    27    11    12 2   
    28    11    39 1   
    29    12    13 1   
    30    12    40 1   
    31    13    14 1   
    32    13    41 1   
    33    13    42 1   
    34    14    15 1   
    35    14    43 1   
    36    14    44 1   
    37    15    16 2   
    38    15    45 1   
    39    16    17 1   
    40    16    46 1   
    41    17    18 2   
    42    17    47 1   
    43    18    48 1   
    44    18    53 1   
    45    19    21 ar  
    46    19    22 1   
    47    20    21 ar  
    48    22    23 1   
    49    22    24 1   
    50    22    51 1   
    51    23    53 1   
    52    24    52 1   
    53    24    54 1   
    54    24    55 1   
    55    49    53 1   
    56    50    53 1   
@<TRIPOS>SUBSTRUCTURE
     1 MFJ         1 TEMP              0 ****  ****    0 ROOT
