@<TRIPOS>MOLECULE
MFL
   74    76     1     0     0
SMALL
abcg2


@<TRIPOS>ATOM
      1 N1          30.8190   -28.1260    24.8150 ns         1 MFL      -0.401100
      2 N3          29.0230   -26.4390    30.2390 ns         1 MFL      -0.488900
      3 C4          29.6450   -26.7850    20.6950 c3         1 MFL      -0.108767
      4 C5          31.3900   -28.1640    23.5750 c          1 MFL       0.657100
      5 C6          31.3380   -28.5990    26.0150 cc         1 MFL      -0.036600
      6 C7          30.4450   -28.3510    27.1310 c          1 MFL       0.530200
      7 C8          32.0830   -29.4060    28.5530 cc         1 MFL      -0.055400
      8 C10         32.5440   -29.2160    26.2060 cd         1 MFL      -0.142000
      9 C13         30.0900   -29.4980    30.6760 c3         1 MFL      -0.050400
     10 C15         28.3510   -31.3580    30.1550 cx         1 MFL      -0.126900
     11 C17         28.9690   -25.0510    30.6640 c3         1 MFL       0.117700
     12 C20         28.9370   -24.2370    28.2500 c5         1 MFL      -0.151700
     13 C21         30.2540   -23.4440    28.1970 c5         1 MFL      -0.089400
     14 C22         29.8520   -22.0620    27.6520 c5         1 MFL       0.099000
     15 C1          32.1080   -26.5750    21.1050 c3         1 MFL      -0.108767
     16 C3          31.0720   -28.8430    20.6340 c3         1 MFL      -0.108767
     17 O1          30.5430   -27.6090    22.6940 os         1 MFL      -0.479100
     18 O2          32.4870   -28.6290    23.3270 o          1 MFL      -0.542000
     19 N2          30.8630   -28.8180    28.3660 n          1 MFL      -0.240000
     20 C9          32.9220   -29.6180    27.5070 cd         1 MFL      -0.256000
     21 O3          29.3650   -27.7500    27.0000 o          1 MFL      -0.598000
     22 C11         29.9520   -28.5420    29.4880 c3         1 MFL       0.021700
     23 C12         30.1570   -27.0900    29.9390 c          1 MFL       0.596100
     24 C14         29.7840   -30.9320    30.3170 cx         1 MFL      -0.136700
     25 C16         29.1530   -31.8340    31.3400 cx         1 MFL      -0.126900
     26 O4          31.2820   -26.6060    30.0330 o          1 MFL      -0.597100
     27 C18         28.3460   -24.9770    32.0690 c3         1 MFL       0.073300
     28 C19         28.2380   -24.2090    29.6160 c3         1 MFL      -0.081400
     29 N4          28.6340   -22.3590    26.9070 ns         1 MFL      -0.516900
     30 C23         28.0520   -23.5310    27.2250 c          1 MFL       0.561000
     31 O5          26.9820   -23.9470    26.7880 o          1 MFL      -0.556000
     32 O6          29.2120   -25.7070    32.9300 oh         1 MFL      -0.657000
     33 C25         29.2360   -21.6320    33.6580 c3         1 MFL       0.095300
     34 H1          29.9070   -27.6960    24.9030 hn         1 MFL       0.358500
     35 H2          28.1440   -26.9030    30.0600 hn         1 MFL       0.319500
     36 H3          29.4830   -25.8200    21.1780 hc         1 MFL       0.051700
     37 H4          29.7760   -26.6200    19.6250 hc         1 MFL       0.051700
     38 H5          28.7610   -27.4060    20.8450 hc         1 MFL       0.051700
     39 H6          32.3310   -29.6900    29.5610 h4         1 MFL       0.209000
     40 H7          33.2020   -29.3840    25.3690 ha         1 MFL       0.224000
     41 H8          31.0730   -29.4060    31.1420 hc         1 MFL       0.061700
     42 H9          29.3690   -29.1550    31.4210 hc         1 MFL       0.061700
     43 H10         27.5870   -30.6110    30.3340 hc         1 MFL       0.073450
     44 H11         28.1130   -32.0700    29.3770 hc         1 MFL       0.073450
     45 H12         30.0030   -24.7200    30.7550 h1         1 MFL       0.093700
     46 H13         29.0690   -25.2720    27.9330 hc         1 MFL       0.103700
     47 H14         30.9460   -23.9250    27.5060 hc         1 MFL       0.062200
     48 H15         30.7470   -23.3670    29.1640 hc         1 MFL       0.062200
     49 H16         30.6110   -21.6330    26.9990 h1         1 MFL       0.043200
     50 H17         29.6470   -21.3490    28.4550 h1         1 MFL       0.043200
     51 H18         33.0040   -27.0550    21.4920 hc         1 MFL       0.051700
     52 H19         32.2570   -26.3600    20.0460 hc         1 MFL       0.051700
     53 H20         31.9550   -25.6300    21.6280 hc         1 MFL       0.051700
     54 H21         31.9620   -29.3370    21.0170 hc         1 MFL       0.051700
     55 H22         30.2010   -29.4710    20.8330 hc         1 MFL       0.051700
     56 H23         31.1720   -28.7290    19.5540 hc         1 MFL       0.051700
     57 H24         33.8760   -30.0940    27.6790 ha         1 MFL       0.202000
     58 H25         28.9480   -28.6480    29.0840 h1         1 MFL       0.093700
     59 H26         30.4940   -31.4050    29.6490 hc         1 MFL       0.085700
     60 H27         29.4620   -32.8700    31.3660 hc         1 MFL       0.073450
     61 H28         28.9200   -31.4060    32.3070 hc         1 MFL       0.073450
     62 H29         27.3480   -25.4240    32.0470 h1         1 MFL       0.066700
     63 H30         28.1620   -23.1790    29.9670 hc         1 MFL       0.069200
     64 H31         27.2170   -24.5860    29.5070 hc         1 MFL       0.069200
     65 H32         28.1650   -21.6790    26.3280 hn         1 MFL       0.326500
     66 H33         28.7440   -25.9000    33.7530 ho         1 MFL       0.450000
     67 H34         29.9860   -23.6150    33.3830 hn         1 MFL       0.333500
     68 H35         30.2050   -21.4420    34.1110 h1         1 MFL       0.043367
     69 H36         29.0820   -20.9310    32.8360 h1         1 MFL       0.043367
     70 H37         28.4540   -21.4670    34.4020 h1         1 MFL       0.043367
     71 C24         28.1690   -23.5240    32.5250 c          1 MFL       0.558100
     72 C2          30.8820   -27.4670    21.2620 c3         1 MFL       0.220000
     73 N5          29.2150   -23.0000    33.1730 ns         1 MFL      -0.498900
     74 O7          27.1370   -22.8990    32.2730 o          1 MFL      -0.602100
@<TRIPOS>BOND
     1     1     4 1   
     2     1     5 1   
     3     1    34 1   
     4     2    11 1   
     5     2    23 1   
     6     2    35 1   
     7     3    36 1   
     8     3    37 1   
     9     3    38 1   
    10     3    72 1   
    11     4    17 1   
    12     4    18 2   
    13     5     6 1   
    14     5     8 2   
    15     6    19 1   
    16     6    21 2   
    17     7    19 1   
    18     7    20 2   
    19     7    39 1   
    20     8    20 1   
    21     8    40 1   
    22     9    22 1   
    23     9    24 1   
    24     9    41 1   
    25     9    42 1   
    26    10    24 1   
    27    10    25 1   
    28    10    43 1   
    29    10    44 1   
    30    11    27 1   
    31    11    28 1   
    32    11    45 1   
    33    12    13 1   
    34    12    28 1   
    35    12    30 1   
    36    12    46 1   
    37    13    14 1   
    38    13    47 1   
    39    13    48 1   
    40    14    29 1   
    41    14    49 1   
    42    14    50 1   
    43    15    51 1   
    44    15    52 1   
    45    15    53 1   
    46    15    72 1   
    47    16    54 1   
    48    16    55 1   
    49    16    56 1   
    50    16    72 1   
    51    17    72 1   
    52    19    22 1   
    53    20    57 1   
    54    22    23 1   
    55    22    58 1   
    56    23    26 2   
    57    24    25 1   
    58    24    59 1   
    59    25    60 1   
    60    25    61 1   
    61    27    32 1   
    62    27    62 1   
    63    27    71 1   
    64    28    63 1   
    65    28    64 1   
    66    29    30 1   
    67    29    65 1   
    68    30    31 2   
    69    32    66 1   
    70    33    68 1   
    71    33    69 1   
    72    33    70 1   
    73    33    73 1   
    74    67    73 1   
    75    71    73 1   
    76    71    74 2   
@<TRIPOS>SUBSTRUCTURE
     1 MFL         1 TEMP              0 ****  ****    0 ROOT
