@<TRIPOS>MOLECULE
MFL
   74    76     1     0     0
SMALL
No Charge or Current Charge


@<TRIPOS>ATOM
      1 N1          31.1010   -28.1870    24.6230 ns         1 MFL      -0.401100
      2 N3          28.9230   -26.3650    30.3080 ns         1 MFL      -0.488900
      3 C4          30.0130   -26.7440    20.4960 c3         1 MFL      -0.108767
      4 C5          31.7010   -28.2800    23.3940 c          1 MFL       0.657100
      5 C6          31.4900   -28.6570    25.8880 cc         1 MFL      -0.036600
      6 C7          30.5260   -28.3250    26.9810 c          1 MFL       0.530200
      7 C8          32.0790   -29.4720    28.4910 cc         1 MFL      -0.055400
      8 C10         32.6570   -29.3630    26.1240 cd         1 MFL      -0.142000
      9 C13         29.9970   -29.3040    30.6820 c3         1 MFL      -0.050400
     10 C15         28.2350   -31.2430    30.3380 cx         1 MFL      -0.126900
     11 C17         28.7990   -24.9650    30.7450 c3         1 MFL       0.117700
     12 C20         28.3150   -24.2280    28.2550 c5         1 MFL      -0.151700
     13 C21         29.6750   -23.5520    27.9160 c5         1 MFL      -0.089400
     14 C22         29.2520   -22.0720    27.7050 c5         1 MFL       0.099000
     15 C1          32.5130   -26.7290    20.9090 c3         1 MFL      -0.108767
     16 C3          31.2610   -28.9490    20.4610 c3         1 MFL      -0.108767
     17 O1          30.8850   -27.6400    22.4990 os         1 MFL      -0.479100
     18 O2          32.7620   -28.8300    23.1480 o          1 MFL      -0.542000
     19 N2          30.8680   -28.8000    28.2730 n          1 MFL      -0.240000
     20 C9          32.9550   -29.7700    27.4680 cd         1 MFL      -0.256000
     21 O3          29.4960   -27.6870    26.7720 o          1 MFL      -0.598000
     22 C11         29.9330   -28.4270    29.3950 c3         1 MFL       0.021700
     23 C12         30.0630   -26.9300    29.7710 c          1 MFL       0.596100
     24 C14         29.6680   -30.7760    30.4340 cx         1 MFL      -0.136700
     25 C16         29.0810   -31.6350    31.5290 cx         1 MFL      -0.126900
     26 O4          31.0920   -26.2850    29.6030 o          1 MFL      -0.597100
     27 C18         28.3160   -24.8790    32.2270 c3         1 MFL       0.073300
     28 C19         27.8980   -24.1700    29.7580 c3         1 MFL      -0.081400
     29 N4          27.9340   -22.2500    27.1010 ns         1 MFL      -0.516900
     30 C23         27.3200   -23.4340    27.4040 c          1 MFL       0.561000
     31 O5          26.2710   -23.8000    26.8990 o          1 MFL      -0.556000
     32 O6          29.0240   -25.8490    33.0530 oh         1 MFL      -0.657000
     33 C25         30.0060   -21.8500    33.9800 c3         1 MFL       0.095300
     34 H1          30.2240   -27.6820    24.5760 hn         1 MFL       0.358500
     35 H2          28.1280   -26.9770    30.4400 hn         1 MFL       0.319500
     36 H3          29.9290   -25.7560    20.9630 hc         1 MFL       0.051700
     37 H4          30.1420   -26.5990    19.4160 hc         1 MFL       0.051700
     38 H5          29.0690   -27.2800    20.6560 hc         1 MFL       0.051700
     39 H6          32.2650   -29.7290    29.5260 h4         1 MFL       0.209000
     40 H7          33.3570   -29.6040    25.3300 ha         1 MFL       0.224000
     41 H8          30.9750   -29.2040    31.1660 hc         1 MFL       0.061700
     42 H9          29.2810   -28.9010    31.4090 hc         1 MFL       0.061700
     43 H10         27.4440   -30.5130    30.4980 hc         1 MFL       0.073450
     44 H11         28.0010   -32.0130    29.6060 hc         1 MFL       0.073450
     45 H12         29.7970   -24.5090    30.7200 h1         1 MFL       0.093700
     46 H13         28.2620   -25.2770    27.9430 hc         1 MFL       0.103700
     47 H14         30.0890   -23.9670    26.9890 hc         1 MFL       0.062200
     48 H15         30.4420   -23.6670    28.6880 hc         1 MFL       0.062200
     49 H16         29.9520   -21.5340    27.0520 h1         1 MFL       0.043200
     50 H17         29.1840   -21.5320    28.6590 h1         1 MFL       0.043200
     51 H18         33.3940   -27.3120    21.1970 hc         1 MFL       0.051700
     52 H19         32.6440   -26.4450    19.8580 hc         1 MFL       0.051700
     53 H20         32.4930   -25.8110    21.5070 hc         1 MFL       0.051700
     54 H21         32.1660   -29.4910    20.7570 hc         1 MFL       0.051700
     55 H22         30.3880   -29.5440    20.7540 hc         1 MFL       0.051700
     56 H23         31.2710   -28.8790    19.3670 hc         1 MFL       0.051700
     57 H24         33.8770   -30.3070    27.6850 ha         1 MFL       0.202000
     58 H25         28.9110   -28.5440    29.0110 h1         1 MFL       0.093700
     59 H26         30.3790   -31.2650    29.7710 hc         1 MFL       0.085700
     60 H27         29.4140   -32.6680    31.5970 hc         1 MFL       0.073450
     61 H28         28.8560   -31.1670    32.4850 hc         1 MFL       0.073450
     62 H29         27.2430   -25.1130    32.2400 h1         1 MFL       0.066700
     63 H30         27.8600   -23.1220    30.0780 hc         1 MFL       0.069200
     64 H31         26.8720   -24.5470    29.8540 hc         1 MFL       0.069200
     65 H32         27.4670   -21.5980    26.4800 hn         1 MFL       0.326500
     66 H33         28.5540   -25.9090    33.9160 ho         1 MFL       0.450000
     67 H34         30.3380   -23.8950    33.4050 hn         1 MFL       0.333500
     68 H35         31.0310   -21.8890    34.3700 h1         1 MFL       0.043367
     69 H36         29.9370   -21.0580    33.2230 h1         1 MFL       0.043367
     70 H37         29.3140   -21.6290    34.8030 h1         1 MFL       0.043367
     71 C24         28.4520   -23.4260    32.7800 c          1 MFL       0.558100
     72 C2          31.2000   -27.5330    21.0910 c3         1 MFL       0.220000
     73 N5          29.6600   -23.1390    33.3780 ns         1 MFL      -0.498900
     74 O7          27.5430   -22.6080    32.7420 o          1 MFL      -0.602100
@<TRIPOS>BOND
     1     1     4 1   
     2     1     5 1   
     3     1    34 1   
     4     2    11 1   
     5     2    23 1   
     6     2    35 1   
     7     3    36 1   
     8     3    37 1   
     9     3    38 1   
    10     3    72 1   
    11     4    17 1   
    12     4    18 2   
    13     5     6 1   
    14     5     8 2   
    15     6    19 1   
    16     6    21 2   
    17     7    19 1   
    18     7    20 2   
    19     7    39 1   
    20     8    20 1   
    21     8    40 1   
    22     9    22 1   
    23     9    24 1   
    24     9    41 1   
    25     9    42 1   
    26    10    24 1   
    27    10    25 1   
    28    10    43 1   
    29    10    44 1   
    30    11    27 1   
    31    11    28 1   
    32    11    45 1   
    33    12    13 1   
    34    12    28 1   
    35    12    30 1   
    36    12    46 1   
    37    13    14 1   
    38    13    47 1   
    39    13    48 1   
    40    14    29 1   
    41    14    49 1   
    42    14    50 1   
    43    15    51 1   
    44    15    52 1   
    45    15    53 1   
    46    15    72 1   
    47    16    54 1   
    48    16    55 1   
    49    16    56 1   
    50    16    72 1   
    51    17    72 1   
    52    19    22 1   
    53    20    57 1   
    54    22    23 1   
    55    22    58 1   
    56    23    26 2   
    57    24    25 1   
    58    24    59 1   
    59    25    60 1   
    60    25    61 1   
    61    27    32 1   
    62    27    62 1   
    63    27    71 1   
    64    28    63 1   
    65    28    64 1   
    66    29    30 1   
    67    29    65 1   
    68    30    31 2   
    69    32    66 1   
    70    33    68 1   
    71    33    69 1   
    72    33    70 1   
    73    33    73 1   
    74    67    73 1   
    75    71    73 1   
    76    71    74 2   
@<TRIPOS>SUBSTRUCTURE
     1 MFL         1 TEMP              0 ****  ****    0 ROOT
