@<TRIPOS>MOLECULE
MFP
   60    62     1     0     0
SMALL
abcg2


@<TRIPOS>ATOM
      1 C22          0.6590     0.9100     3.7140 ca         1 MFP      -0.150000
      2 C1           1.7950     0.3260    -1.5810 ca         1 MFP       0.192900
      3 C5           0.1000    -0.6320    -0.4490 ca         1 MFP       0.410900
      4 C4          -0.4130    -1.1310    -1.6550 ca         1 MFP      -0.357000
      5 C3           0.3010    -0.8330    -2.8060 ca         1 MFP       0.413900
      6 C11          1.8740    -0.0020    -7.5700 ca         1 MFP      -0.067300
      7 C10          1.0390     0.8720    -6.8760 ca         1 MFP      -0.083000
      8 C9           0.3960     0.4630    -5.7200 ca         1 MFP      -0.003900
      9 C8           0.5790    -0.8230    -5.2120 ca         1 MFP       0.307000
     10 C12          2.0500    -1.2870    -7.0690 ca         1 MFP      -0.096000
     11 C16         -1.2150    -2.1490    -4.2030 c3         1 MFP       0.306900
     12 C13          1.4160    -1.6870    -5.9030 ca         1 MFP      -0.102000
     13 C20         -0.2530    -0.5450     2.0210 ca         1 MFP       0.266000
     14 N2           1.4190    -0.0950    -2.7690 nb         1 MFP      -0.259000
     15 N6           1.2120     0.1070    -0.4160 nb         1 MFP      -0.270000
     16 N7          -0.0830    -1.2760    -4.0450 nh         1 MFP      -0.820100
     17 BR          -0.7410     1.6710    -4.8300 br         1 MFP      -0.074100
     18 N18         -3.5170    -0.9070    -4.0540 n1         1 MFP      -0.435000
     19 N19         -0.5550    -0.9100     0.7040 nu         1 MFP      -0.932900
     20 C21          0.4510     0.6070     2.3810 ca         1 MFP      -0.102000
     21 C23          0.1640     0.0910     4.7280 ca         1 MFP       0.126100
     22 C24         -0.5460    -1.0520     4.3770 ca         1 MFP      -0.150000
     23 C25         -0.7430    -1.3610     3.0380 ca         1 MFP      -0.102000
     24 O26          0.4120     0.4810     5.9970 os         1 MFP      -0.328100
     25 C27         -0.1100    -0.2970     7.0560 c3         1 MFP       0.160600
     26 C28          0.2340     0.3820     8.3610 c3         1 MFP       0.172300
     27 C29         -0.4350    -0.3560     9.5230 c3         1 MFP       0.120800
     28 N30          0.1180     0.1070    10.7820 n3         1 MFP      -0.738600
     29 C31         -0.4230     1.3890    11.1940 c3         1 MFP       0.151600
     30 C32         -0.0040    -0.8770    11.8380 c3         1 MFP       0.151600
     31 O33          1.6270     0.3880     8.5500 oh         1 MFP      -0.650000
     32 H22          1.2060     1.8070     3.9760 ha         1 MFP       0.122500
     33 H1           2.7000     0.9250    -1.5530 h5         1 MFP       0.047100
     34 H4          -1.3230    -1.7130    -1.6520 ha         1 MFP       0.128000
     35 H10          0.8920     1.8770    -7.2510 ha         1 MFP       0.131000
     36 H12          2.7000    -1.9820    -7.5850 ha         1 MFP       0.119000
     37 H161        -1.1640    -2.6390    -5.1750 h1         1 MFP       0.079700
     38 H162        -1.2120    -2.9480    -3.4580 h1         1 MFP       0.079700
     39 H13          1.5740    -2.6850    -5.5150 ha         1 MFP       0.121000
     40 H151         1.8300     0.4600    -9.6650 hc         1 MFP       0.046700
     41 H152         2.9520     1.4470    -8.7420 hc         1 MFP       0.046700
     42 H153         3.3530    -0.2300    -9.1160 hc         1 MFP       0.046700
     43 H19         -1.3240    -1.5550     0.6120 hn         1 MFP       0.494000
     44 H21          0.8390     1.2700     1.6250 ha         1 MFP       0.126000
     45 H24         -0.9510    -1.7220     5.1230 ha         1 MFP       0.122500
     46 H25         -1.2930    -2.2590     2.7860 ha         1 MFP       0.126000
     47 H271         0.3100    -1.3110     7.0370 h1         1 MFP       0.037200
     48 H272        -1.2000    -0.3830     6.9710 h1         1 MFP       0.037200
     49 H28         -0.1550     1.4110     8.3170 h1         1 MFP       0.045700
     50 H291        -0.2190    -1.4240     9.4310 h1         1 MFP       0.043700
     51 H292        -1.5280    -0.2430     9.4680 h1         1 MFP       0.043700
     52 H311         0.0990     1.7390    12.0850 h1         1 MFP       0.035533
     53 H312        -0.2810     2.1390    10.4160 h1         1 MFP       0.035533
     54 H313        -1.4970     1.3420    11.4250 h1         1 MFP       0.035533
     55 H321         0.4770    -1.8090    11.5400 h1         1 MFP       0.035533
     56 H322         0.4950    -0.5160    12.7380 h1         1 MFP       0.035533
     57 H323        -1.0470    -1.1020    12.1010 h1         1 MFP       0.035533
     58 H33          1.7360     0.3930     9.5160 ho         1 MFP       0.468000
     59 C15          2.5420     0.4410    -8.8370 c3         1 MFP      -0.049800
     60 C17         -2.5030    -1.4450    -4.1200 c1         1 MFP       0.265900
@<TRIPOS>BOND
     1     1    20 ar  
     2     1    21 ar  
     3     1    32 1   
     4     2    14 ar  
     5     2    15 ar  
     6     2    33 1   
     7     3     4 ar  
     8     3    15 ar  
     9     3    19 1   
    10     4     5 ar  
    11     4    34 1   
    12     5    14 ar  
    13     5    16 1   
    14     6     7 ar  
    15     6    10 ar  
    16     6    59 1   
    17     7     8 ar  
    18     7    35 1   
    19     8     9 ar  
    20     8    17 1   
    21     9    12 ar  
    22     9    16 1   
    23    10    12 ar  
    24    10    36 1   
    25    11    16 1   
    26    11    37 1   
    27    11    38 1   
    28    11    60 1   
    29    12    39 1   
    30    13    19 1   
    31    13    20 ar  
    32    13    23 ar  
    33    18    60 3   
    34    19    43 1   
    35    20    44 1   
    36    21    22 ar  
    37    21    24 1   
    38    22    23 ar  
    39    22    45 1   
    40    23    46 1   
    41    24    25 1   
    42    25    26 1   
    43    25    47 1   
    44    25    48 1   
    45    26    27 1   
    46    26    31 1   
    47    26    49 1   
    48    27    28 1   
    49    27    50 1   
    50    27    51 1   
    51    28    29 1   
    52    28    30 1   
    53    29    52 1   
    54    29    53 1   
    55    29    54 1   
    56    30    55 1   
    57    30    56 1   
    58    30    57 1   
    59    31    58 1   
    60    40    59 1   
    61    41    59 1   
    62    42    59 1   
@<TRIPOS>SUBSTRUCTURE
     1 MFP         1 TEMP              0 ****  ****    0 ROOT
