@<TRIPOS>MOLECULE
MFP
   60    62     1     0     0
SMALL
No Charge or Current Charge


@<TRIPOS>ATOM
      1 C22          0.6710     0.8240     3.7190 ca         1 MFP      -0.150000
      2 C1           2.2010    -0.1720    -1.6140 ca         1 MFP       0.192900
      3 C5           0.3350    -0.8760    -0.5050 ca         1 MFP       0.410900
      4 C4          -0.2390    -1.2620    -1.7160 ca         1 MFP      -0.357000
      5 C3           0.5040    -1.0480    -2.8870 ca         1 MFP       0.413900
      6 C11          1.7020     0.2740    -7.7040 ca         1 MFP      -0.067300
      7 C10          0.9680     1.0930    -6.8270 ca         1 MFP      -0.083000
      8 C9           0.4040     0.5580    -5.6540 ca         1 MFP      -0.003900
      9 C8           0.5710    -0.8130    -5.3440 ca         1 MFP       0.307000
     10 C12          1.8630    -1.0900    -7.4020 ca         1 MFP      -0.096000
     11 C16         -1.1100    -2.3590    -4.3360 c3         1 MFP       0.306900
     12 C13          1.2990    -1.6270    -6.2310 ca         1 MFP      -0.102000
     13 C20         -0.1820    -0.7030     2.0090 ca         1 MFP       0.266000
     14 N2           1.7330    -0.4970    -2.8330 nb         1 MFP      -0.259000
     15 N6           1.5620    -0.3390    -0.4420 nb         1 MFP      -0.270000
     16 N7           0.0170    -1.3860    -4.1720 nh         1 MFP      -0.820100
     17 Br          -0.6160     1.7290    -4.5180 br         1 MFP      -0.074100
     18 N18         -3.5160    -1.2650    -4.4670 n1         1 MFP      -0.435000
     19 N19         -0.3640    -1.0930     0.6740 nu         1 MFP      -0.932900
     20 C21          0.5260     0.4630     2.3660 ca         1 MFP      -0.102000
     21 C23          0.1070     0.0330     4.7320 ca         1 MFP       0.126100
     22 C24         -0.6160    -1.1280     4.3810 ca         1 MFP      -0.150000
     23 C25         -0.7600    -1.4840     3.0260 ca         1 MFP      -0.102000
     24 O26          0.2810     0.4360     6.0390 os         1 MFP      -0.328100
     25 C27         -0.2610    -0.3050     7.1510 c3         1 MFP       0.160600
     26 C28          0.1120     0.4210     8.4710 c3         1 MFP       0.172300
     27 C29         -0.5560    -0.2180     9.7160 c3         1 MFP       0.120800
     28 N30          0.1070     0.1570    11.0030 n3         1 MFP      -0.738600
     29 C31         -0.0430     1.5950    11.3460 c3         1 MFP       0.151600
     30 C32         -0.3170    -0.7160    12.1220 c3         1 MFP       0.151600
     31 O33          1.5250     0.3920     8.7190 oh         1 MFP      -0.650000
     32 H22          1.2190     1.7250     3.9830 ha         1 MFP       0.122500
     33 H1           3.1960     0.2680    -1.5730 h5         1 MFP       0.047100
     34 H4          -1.2340    -1.6900    -1.7360 ha         1 MFP       0.128000
     35 H10          0.8290     2.1470    -7.0560 ha         1 MFP       0.131000
     36 H12          2.4250    -1.7370    -8.0730 ha         1 MFP       0.119000
     37 H161        -0.9710    -2.9380    -5.2580 h1         1 MFP       0.079700
     38 H162        -1.0980    -3.1010    -3.5270 h1         1 MFP       0.079700
     39 H13          1.4370    -2.6800    -6.0030 ha         1 MFP       0.121000
     40 H151         1.5950     0.8020    -9.8040 hc         1 MFP       0.046700
     41 H152         2.5850     1.9080    -8.8360 hc         1 MFP       0.046700
     42 H153         3.2120     0.3130    -9.2700 hc         1 MFP       0.046700
     43 H19         -1.1480    -1.7300     0.5420 hn         1 MFP       0.494000
     44 H21          0.9510     1.1070     1.6040 ha         1 MFP       0.126000
     45 H24         -1.0710    -1.7610     5.1370 ha         1 MFP       0.122500
     46 H25         -1.3180    -2.3810     2.7690 ha         1 MFP       0.126000
     47 H271         0.1390    -1.3280     7.1710 h1         1 MFP       0.037200
     48 H272        -1.3550    -0.3620     7.0730 h1         1 MFP       0.037200
     49 H28         -0.2300     1.4620     8.4010 h1         1 MFP       0.045700
     50 H291        -0.5120    -1.3090     9.5920 h1         1 MFP       0.043700
     51 H292        -1.6200     0.0560     9.7340 h1         1 MFP       0.043700
     52 H311         0.4930     1.8280    12.2750 h1         1 MFP       0.035533
     53 H312         0.3650     2.2390    10.5570 h1         1 MFP       0.035533
     54 H313        -1.1010     1.8540    11.4880 h1         1 MFP       0.035533
     55 H321        -0.1230    -1.7710    11.8880 h1         1 MFP       0.035533
     56 H322         0.2360    -0.4680    13.0380 h1         1 MFP       0.035533
     57 H323        -1.3900    -0.6000    12.3250 h1         1 MFP       0.035533
     58 H33          1.5490     0.3070     9.7060 ho         1 MFP       0.468000
     59 C15          2.3070     0.8560    -8.9720 c3         1 MFP      -0.049800
     60 C17         -2.4560    -1.7500    -4.3940 c1         1 MFP       0.265900
@<TRIPOS>BOND
     1     1    20 ar  
     2     1    21 ar  
     3     1    32 1   
     4     2    14 ar  
     5     2    15 ar  
     6     2    33 1   
     7     3     4 ar  
     8     3    15 ar  
     9     3    19 1   
    10     4     5 ar  
    11     4    34 1   
    12     5    14 ar  
    13     5    16 1   
    14     6     7 ar  
    15     6    10 ar  
    16     6    59 1   
    17     7     8 ar  
    18     7    35 1   
    19     8     9 ar  
    20     8    17 1   
    21     9    12 ar  
    22     9    16 1   
    23    10    12 ar  
    24    10    36 1   
    25    11    16 1   
    26    11    37 1   
    27    11    38 1   
    28    11    60 1   
    29    12    39 1   
    30    13    19 1   
    31    13    20 ar  
    32    13    23 ar  
    33    18    60 3   
    34    19    43 1   
    35    20    44 1   
    36    21    22 ar  
    37    21    24 1   
    38    22    23 ar  
    39    22    45 1   
    40    23    46 1   
    41    24    25 1   
    42    25    26 1   
    43    25    47 1   
    44    25    48 1   
    45    26    27 1   
    46    26    31 1   
    47    26    49 1   
    48    27    28 1   
    49    27    50 1   
    50    27    51 1   
    51    28    29 1   
    52    28    30 1   
    53    29    52 1   
    54    29    53 1   
    55    29    54 1   
    56    30    55 1   
    57    30    56 1   
    58    30    57 1   
    59    31    58 1   
    60    40    59 1   
    61    41    59 1   
    62    42    59 1   
@<TRIPOS>SUBSTRUCTURE
     1 MFP         1 TEMP              0 ****  ****    0 ROOT
