@<TRIPOS>MOLECULE
MFQ
   60    62     1     0     0
SMALL
No Charge or Current Charge


@<TRIPOS>ATOM
      1 C22          0.8370     0.7650     3.7040 ca         1 MFQ      -0.156500
      2 C1           2.2310    -0.1970    -1.6730 ca         1 MFQ       0.191900
      3 C5           0.3830    -0.8920    -0.5280 ca         1 MFQ       0.408900
      4 C4          -0.2230    -1.2610    -1.7280 ca         1 MFQ      -0.357000
      5 C3           0.4960    -1.0440    -2.9150 ca         1 MFQ       0.413900
      6 C11          1.5950     0.3130    -7.7450 ca         1 MFQ      -0.068300
      7 C10          0.8890     1.1310    -6.8440 ca         1 MFQ      -0.082000
      8 C9           0.3480     0.5900    -5.6630 ca         1 MFQ      -0.003900
      9 C8           0.5080    -0.7860    -5.3700 ca         1 MFQ       0.308000
     10 C12          1.7490    -1.0560    -7.4600 ca         1 MFQ      -0.098000
     11 C16         -1.1640    -2.3250    -4.3370 c3         1 MFQ       0.306900
     12 C13          1.2070    -1.5980    -6.2810 ca         1 MFQ      -0.103000
     13 C20         -0.0730    -0.7370     2.0000 ca         1 MFQ       0.257000
     14 N2           1.7310    -0.5060    -2.8840 nb         1 MFQ      -0.261000
     15 N6           1.6180    -0.3690    -0.4880 nb         1 MFQ      -0.268000
     16 N7          -0.0250    -1.3650    -4.1910 nh         1 MFQ      -0.820100
     17 Br          -0.6340     1.7600    -4.4930 br         1 MFQ      -0.073100
     18 N18         -3.5610    -1.2070    -4.4040 n1         1 MFQ      -0.435000
     19 N19         -0.2910    -1.1130     0.6660 nu         1 MFQ      -0.939900
     20 C21          0.6560     0.4180     2.3520 ca         1 MFQ      -0.088000
     21 C23          0.2870    -0.0290     4.7220 ca         1 MFQ       0.135100
     22 C24         -0.4570    -1.1780     4.3790 ca         1 MFQ      -0.156500
     23 C25         -0.6370    -1.5210     3.0250 ca         1 MFQ      -0.088000
     24 O26          0.4970     0.3600     6.0290 os         1 MFQ      -0.329100
     25 C27         -0.0260    -0.3860     7.1470 c3         1 MFQ       0.160600
     26 C28          0.3980     0.3160     8.4640 c3         1 MFQ       0.172300
     27 C29          0.0110    -0.4950     9.7270 c3         1 MFQ       0.120800
     28 N30         -0.0030     0.3250    10.9770 n3         1 MFQ      -0.738600
     29 C31         -0.6950    -0.3670    12.0890 c3         1 MFQ       0.151600
     30 C32          1.3450     0.7990    11.3860 c3         1 MFQ       0.151600
     31 O33         -0.2240     1.6010     8.6120 oh         1 MFQ      -0.652000
     32 H22          1.4010     1.6570     3.9630 ha         1 MFQ       0.123500
     33 H1L          3.2300     0.2330    -1.6510 h5         1 MFQ       0.047100
     34 H4          -1.2220    -1.6780    -1.7300 ha         1 MFQ       0.129000
     35 H10          0.7550     2.1880    -7.0600 ha         1 MFQ       0.131000
     36 H12          2.2880    -1.7010    -8.1500 ha         1 MFQ       0.118000
     37 H161        -1.0520    -2.8970    -5.2680 h1         1 MFQ       0.079700
     38 H162        -1.1410    -3.0740    -3.5360 h1         1 MFQ       0.079700
     39 H13          1.3400    -2.6550    -6.0670 ha         1 MFQ       0.121000
     40 H151         1.4430     0.8640    -9.8370 hc         1 MFQ       0.046700
     41 H152         2.4690     1.9480    -8.8820 hc         1 MFQ       0.046700
     42 H153         3.0670     0.3510    -9.3470 hc         1 MFQ       0.046700
     43 H19         -1.0850    -1.7410     0.5450 hn         1 MFQ       0.496000
     44 H21          1.0710     1.0640     1.5850 ha         1 MFQ       0.123000
     45 H24         -0.9020    -1.8120     5.1400 ha         1 MFQ       0.123500
     46 H25         -1.2110    -2.4080     2.7730 ha         1 MFQ       0.123000
     47 H271         0.3750    -1.4080     7.1430 h1         1 MFQ       0.037700
     48 H272        -1.1220    -0.4440     7.0990 h1         1 MFQ       0.037700
     49 H28          1.4900     0.4320     8.4570 h1         1 MFQ       0.046700
     50 H291         0.6960    -1.3480     9.8310 h1         1 MFQ       0.043200
     51 H292        -0.9920    -0.9130     9.5590 h1         1 MFQ       0.043200
     52 H311        -0.7560     0.2820    12.9730 h1         1 MFQ       0.035533
     53 H312        -1.7200    -0.6380    11.8010 h1         1 MFQ       0.035533
     54 H313        -0.1630    -1.2850    12.3720 h1         1 MFQ       0.035533
     55 H321         1.8150     1.3980    10.5960 h1         1 MFQ       0.035533
     56 H322         1.2770     1.4280    12.2830 h1         1 MFQ       0.035533
     57 H323         2.0050    -0.0490    11.6120 h1         1 MFQ       0.035533
     58 H33         -0.3740     1.6350     9.5900 ho         1 MFQ       0.469000
     59 C15          2.1760     0.9010    -9.0220 c3         1 MFQ      -0.048800
     60 C17         -2.5060    -1.7030    -4.3600 c1         1 MFQ       0.266900
@<TRIPOS>BOND
     1     1    20 ar  
     2     1    21 ar  
     3     1    32 1   
     4     2    14 ar  
     5     2    15 ar  
     6     2    33 1   
     7     3     4 ar  
     8     3    15 ar  
     9     3    19 1   
    10     4     5 ar  
    11     4    34 1   
    12     5    14 ar  
    13     5    16 1   
    14     6     7 ar  
    15     6    10 ar  
    16     6    59 1   
    17     7     8 ar  
    18     7    35 1   
    19     8     9 ar  
    20     8    17 1   
    21     9    12 ar  
    22     9    16 1   
    23    10    12 ar  
    24    10    36 1   
    25    11    16 1   
    26    11    37 1   
    27    11    38 1   
    28    11    60 1   
    29    12    39 1   
    30    13    19 1   
    31    13    20 ar  
    32    13    23 ar  
    33    18    60 3   
    34    19    43 1   
    35    20    44 1   
    36    21    22 ar  
    37    21    24 1   
    38    22    23 ar  
    39    22    45 1   
    40    23    46 1   
    41    24    25 1   
    42    25    26 1   
    43    25    47 1   
    44    25    48 1   
    45    26    27 1   
    46    26    31 1   
    47    26    49 1   
    48    27    28 1   
    49    27    50 1   
    50    27    51 1   
    51    28    29 1   
    52    28    30 1   
    53    29    52 1   
    54    29    53 1   
    55    29    54 1   
    56    30    55 1   
    57    30    56 1   
    58    30    57 1   
    59    31    58 1   
    60    40    59 1   
    61    41    59 1   
    62    42    59 1   
@<TRIPOS>SUBSTRUCTURE
     1 MFQ         1 TEMP              0 ****  ****    0 ROOT
