@<TRIPOS>MOLECULE
MFQ
   60    62     1     0     0
SMALL
bcc


@<TRIPOS>ATOM
      1 C22          0.2210     1.0610     3.6560 ca         1 MFQ      -0.174500
      2 C1           1.6580     0.2830    -1.4950 ca         1 MFQ       0.717900
      3 C5          -0.1120    -0.6350    -0.4480 ca         1 MFQ       0.737200
      4 C4          -0.5920    -1.0990    -1.6800 ca         1 MFQ      -0.505600
      5 C3           0.1790    -0.8110    -2.7970 ca         1 MFQ       0.742200
      6 C11          1.9970    -0.0160    -7.4810 ca         1 MFQ      -0.068300
      7 C10          1.1620     0.8830    -6.8260 ca         1 MFQ      -0.100000
      8 C9           0.4500     0.4950    -5.7000 ca         1 MFQ      -0.003900
      9 C8           0.5650    -0.7940    -5.1880 ca         1 MFQ       0.169600
     10 C12          2.1050    -1.3100    -6.9740 ca         1 MFQ      -0.116000
     11 C16         -1.3190    -2.0610    -4.2710 c3         1 MFQ       0.306900
     12 C13          1.4050    -1.6870    -5.8420 ca         1 MFQ      -0.121000
     13 C20         -0.4880    -0.5360     1.9970 ca         1 MFQ       0.118600
     14 N2           1.3170    -0.1100    -2.7040 nb         1 MFQ      -0.787000
     15 N6           1.0220     0.0670    -0.3580 nb         1 MFQ      -0.794000
     16 N7          -0.1670    -1.2270    -4.0560 nh         1 MFQ      -0.681700
     17 BR          -0.6830     1.7420    -4.8620 br         1 MFQ      -0.073100
     18 N18         -3.5810    -0.7420    -4.2150 n1         1 MFQ      -0.345800
     19 N19         -0.8110    -0.9020     0.6800 nu         1 MFQ      -0.746300
     20 C21         -0.0350     0.7400     2.3370 ca         1 MFQ      -0.106000
     21 C23          0.0160     0.1290     4.6750 ca         1 MFQ       0.135100
     22 C24         -0.4490    -1.1390     4.3430 ca         1 MFQ      -0.174500
     23 C25         -0.6880    -1.4620     3.0130 ca         1 MFQ      -0.106000
     24 O26          0.2850     0.5420     5.9300 os         1 MFQ      -0.305900
     25 C27          0.0830    -0.3600     7.0000 c3         1 MFQ       0.137400
     26 C28          0.3910     0.3590     8.2930 c3         1 MFQ       0.149100
     27 C29          0.3400    -0.6320     9.4590 c3         1 MFQ       0.120800
     28 N30          0.3290     0.0900    10.7180 n3         1 MFQ      -0.738600
     29 C31         -0.2880    -0.6660    11.7890 c3         1 MFQ       0.151600
     30 C32          1.6440     0.5650    11.1020 c3         1 MFQ       0.151600
     31 O33         -0.5470     1.3840     8.5060 oh         1 MFQ      -0.589800
     32 H22          0.5720     2.0540     3.9090 ha         1 MFQ       0.141500
     33 H1L          2.5790     0.8530    -1.4220 h5         1 MFQ       0.047100
     34 H4          -1.5210    -1.6490    -1.7220 ha         1 MFQ       0.147000
     35 H10          1.0660     1.8930    -7.2050 ha         1 MFQ       0.149000
     36 H12          2.7540    -2.0270    -7.4610 ha         1 MFQ       0.136000
     37 H161        -1.2420    -2.5460    -5.2440 h1         1 MFQ       0.079700
     38 H162        -1.3750    -2.8650    -3.5330 h1         1 MFQ       0.079700
     39 H13          1.5080    -2.6910    -5.4500 ha         1 MFQ       0.139000
     40 H151         2.3440    -0.1010    -9.5960 hc         1 MFQ       0.046700
     41 H152         2.6970     1.4660    -8.8770 hc         1 MFQ       0.046700
     42 H153         3.8020     0.1130    -8.6410 hc         1 MFQ       0.046700
     43 H19         -1.5770    -1.5500     0.5820 hn         1 MFQ       0.440800
     44 H21          0.1120     1.4900     1.5750 ha         1 MFQ       0.141000
     45 H24         -0.6210    -1.8970     5.0950 ha         1 MFQ       0.141500
     46 H25         -1.0380    -2.4570     2.7690 ha         1 MFQ       0.141000
     47 H271         0.7420    -1.2310     6.9010 h1         1 MFQ       0.037700
     48 H272        -0.9530    -0.7210     7.0150 h1         1 MFQ       0.037700
     49 H28          1.4090     0.7730     8.2180 h1         1 MFQ       0.046700
     50 H291         1.1700    -1.3500     9.3840 h1         1 MFQ       0.043200
     51 H292        -0.5880    -1.2080     9.3920 h1         1 MFQ       0.043200
     52 H311        -0.3570    -0.0480    12.6850 h1         1 MFQ       0.035533
     53 H312        -1.2980    -0.9610    11.5070 h1         1 MFQ       0.035533
     54 H313         0.2700    -1.5760    12.0540 h1         1 MFQ       0.035533
     55 H321         2.0790     1.1870    10.3190 h1         1 MFQ       0.035533
     56 H322         1.5670     1.1780    12.0000 h1         1 MFQ       0.035533
     57 H323         2.3470    -0.2550    11.3090 h1         1 MFQ       0.035533
     58 H33         -0.5940     1.4700     9.4720 ho         1 MFQ       0.430000
     59 C15          2.7510     0.3920    -8.7120 c3         1 MFQ      -0.048800
     60 C17         -2.5850    -1.3150    -4.2390 c1         1 MFQ       0.177700
@<TRIPOS>BOND
     1     1    20 ar  
     2     1    21 ar  
     3     1    32 1   
     4     2    14 ar  
     5     2    15 ar  
     6     2    33 1   
     7     3     4 ar  
     8     3    15 ar  
     9     3    19 1   
    10     4     5 ar  
    11     4    34 1   
    12     5    14 ar  
    13     5    16 1   
    14     6     7 ar  
    15     6    10 ar  
    16     6    59 1   
    17     7     8 ar  
    18     7    35 1   
    19     8     9 ar  
    20     8    17 1   
    21     9    12 ar  
    22     9    16 1   
    23    10    12 ar  
    24    10    36 1   
    25    11    16 1   
    26    11    37 1   
    27    11    38 1   
    28    11    60 1   
    29    12    39 1   
    30    13    19 1   
    31    13    20 ar  
    32    13    23 ar  
    33    18    60 3   
    34    19    43 1   
    35    20    44 1   
    36    21    22 ar  
    37    21    24 1   
    38    22    23 ar  
    39    22    45 1   
    40    23    46 1   
    41    24    25 1   
    42    25    26 1   
    43    25    47 1   
    44    25    48 1   
    45    26    27 1   
    46    26    31 1   
    47    26    49 1   
    48    27    28 1   
    49    27    50 1   
    50    27    51 1   
    51    28    29 1   
    52    28    30 1   
    53    29    52 1   
    54    29    53 1   
    55    29    54 1   
    56    30    55 1   
    57    30    56 1   
    58    30    57 1   
    59    31    58 1   
    60    40    59 1   
    61    41    59 1   
    62    42    59 1   
@<TRIPOS>SUBSTRUCTURE
     1 MFQ         1 TEMP              0 ****  ****    0 ROOT
