@<TRIPOS>MOLECULE
MFR
   29    31     1     0     0
SMALL
bcc


@<TRIPOS>ATOM
      1 C2          -2.8290    -1.5520    -0.0620 ca         1 MFR      -0.389300
      2 C3          -3.8420    -0.6280     0.2070 ca         1 MFR       0.461200
      3 C1          -1.5060    -1.1270    -0.1560 ca         1 MFR       0.239100
      4 C11          1.3080     0.8040    -0.0380 ca         1 MFR       0.593100
      5 C12          3.0560    -0.5700     0.4420 ca         1 MFR       0.900900
      6 N7           3.9760     0.2130    -0.1350 nb         1 MFR      -0.776000
      7 C13          3.5180     1.3290    -0.6820 ca         1 MFR       0.475200
      8 C14          2.1830     1.6840    -0.6820 ca         1 MFR      -0.434600
      9 N5           1.7500    -0.3110     0.5270 nb         1 MFR      -0.757000
     10 C9          -0.1150     1.1100     0.0680 cc         1 MFR      -0.193000
     11 C8          -0.6050     2.3760     0.2720 cd         1 MFR      -0.092100
     12 N2          -1.9530     2.3350     0.4160 na         1 MFR      -0.265100
     13 C10         -1.2560     0.2360     0.0780 ca         1 MFR      -0.201100
     14 O1          -0.4800    -1.9090    -0.4690 os         1 MFR      -0.279900
     15 C15         -0.7120    -3.2880    -0.6960 c3         1 MFR       0.122700
     16 C4          -2.3860     1.0480     0.3020 ca         1 MFR       0.449800
     17 N1          -3.6550     0.6690     0.3780 nb         1 MFR      -0.709000
     18 H2          -3.1070    -2.5860    -0.2100 ha         1 MFR       0.142000
     19 H3          -4.8650    -0.9820     0.2700 h4         1 MFR       0.016100
     20 HN6          4.4710    -1.8640     1.1180 hn         1 MFR       0.435800
     21 HN6A         2.8650    -2.2440     1.5750 hn         1 MFR       0.435800
     22 H13          4.2540     1.9720    -1.1530 h4         1 MFR       0.017100
     23 H14          1.8410     2.5860    -1.1660 ha         1 MFR       0.148000
     24 H8          -0.0690     3.3070     0.3620 h4         1 MFR       0.169000
     25 HN2         -2.5440     3.1290     0.6040 hn         1 MFR       0.313700
     26 H15         -1.1070    -3.7850     0.1930 h1         1 MFR       0.044033
     27 H15A        -1.3980    -3.4530    -1.5300 h1         1 MFR       0.044033
     28 H15B         0.2530    -3.7220    -0.9430 h1         1 MFR       0.044033
     29 N6           3.4850    -1.7370     0.9690 nv         1 MFR      -0.951500
@<TRIPOS>BOND
     1     1     2 ar  
     2     1     3 ar  
     3     1    18 1   
     4     2    17 ar  
     5     2    19 1   
     6     3    13 ar  
     7     3    14 1   
     8     4     8 ar  
     9     4     9 ar  
    10     4    10 1   
    11     5     6 ar  
    12     5     9 ar  
    13     5    29 1   
    14     6     7 ar  
    15     7     8 ar  
    16     7    22 1   
    17     8    23 1   
    18    10    11 2   
    19    10    13 1   
    20    11    12 1   
    21    11    24 1   
    22    12    16 1   
    23    12    25 1   
    24    13    16 ar  
    25    14    15 1   
    26    15    26 1   
    27    15    27 1   
    28    15    28 1   
    29    16    17 ar  
    30    20    29 1   
    31    21    29 1   
@<TRIPOS>SUBSTRUCTURE
     1 MFR         1 TEMP              0 ****  ****    0 ROOT
