@<TRIPOS>MOLECULE
MFR
   29    31     1     0     0
SMALL
No Charge or Current Charge


@<TRIPOS>ATOM
      1 C2          -2.8400    -1.5740    -0.0330 ca         1 MFR      -0.306000
      2 C3          -3.8650    -0.6770     0.3140 ca         1 MFR       0.395900
      3 C1          -1.5280    -1.0860    -0.1880 ca         1 MFR       0.239100
      4 C11          1.2670     0.7890    -0.0840 ca         1 MFR       0.264800
      5 C12          3.0140    -0.5780     0.4820 ca         1 MFR       0.374900
      6 N7           3.9630     0.1640    -0.1060 nb         1 MFR      -0.250000
      7 C13          3.5400     1.2870    -0.7180 ca         1 MFR       0.146900
      8 C14          2.1830     1.6440    -0.7290 ca         1 MFR      -0.286000
      9 N5           1.6970    -0.3310     0.5320 nb         1 MFR      -0.231000
     10 C9          -0.1610     1.1230    -0.0480 cc         1 MFR      -0.193000
     11 C8          -0.5650     2.4200     0.2260 cd         1 MFR      -0.142100
     12 N2          -1.9630     2.4090     0.4500 na         1 MFR      -0.315400
     13 C10         -1.3360     0.2860     0.0400 ca         1 MFR      -0.135800
     14 O1          -0.4790    -1.8900    -0.5800 os         1 MFR      -0.303100
     15 C15         -0.6410    -3.2960    -0.8230 c3         1 MFR       0.145900
     16 C4          -2.4020     1.1030     0.3460 ca         1 MFR       0.384500
     17 N1          -3.6590     0.6480     0.4920 nb         1 MFR      -0.709000
     18 H2          -3.0890    -2.6190    -0.1820 ha         1 MFR       0.124000
     19 H3          -4.8890    -1.0290     0.4370 h4         1 MFR       0.016100
     20 HN6          4.4380    -1.8180     1.2790 hn         1 MFR       0.491000
     21 HN6A         2.8070    -2.1860     1.7390 hn         1 MFR       0.491000
     22 H13          4.2960     1.9030    -1.2020 h4         1 MFR       0.017100
     23 H14          1.8530     2.5490    -1.2300 ha         1 MFR       0.130000
     24 H8           0.0310     3.3260     0.3270 h4         1 MFR       0.219000
     25 HN2         -2.5500     3.2010     0.6820 hn         1 MFR       0.364000
     26 H15         -0.9920    -3.8100     0.0810 h1         1 MFR       0.044033
     27 H15A        -1.3610    -3.4720    -1.6320 h1         1 MFR       0.044033
     28 H15B         0.3170    -3.7430    -1.1180 h1         1 MFR       0.044033
     29 N6           3.4420    -1.7050     1.1060 nv         1 MFR      -1.061900
@<TRIPOS>BOND
     1     1     2 ar  
     2     1     3 ar  
     3     1    18 1   
     4     2    17 ar  
     5     2    19 1   
     6     3    13 ar  
     7     3    14 1   
     8     4     8 ar  
     9     4     9 ar  
    10     4    10 1   
    11     5     6 ar  
    12     5     9 ar  
    13     5    29 1   
    14     6     7 ar  
    15     7     8 ar  
    16     7    22 1   
    17     8    23 1   
    18    10    11 2   
    19    10    13 1   
    20    11    12 1   
    21    11    24 1   
    22    12    16 1   
    23    12    25 1   
    24    13    16 ar  
    25    14    15 1   
    26    15    26 1   
    27    15    27 1   
    28    15    28 1   
    29    16    17 ar  
    30    20    29 1   
    31    21    29 1   
@<TRIPOS>SUBSTRUCTURE
     1 MFR         1 TEMP              0 ****  ****    0 ROOT
