@<TRIPOS>MOLECULE
MFS
   84    85     1     0     0
SMALL
No Charge or Current Charge


@<TRIPOS>ATOM
      1 C2           3.5250     0.5760     0.2370 c6         1 MFS       0.153300
      2 C3           2.0910     0.5710     0.8620 c6         1 MFS       0.156300
      3 O4          -0.1230    -0.5470     0.7920 os         1 MFS      -0.428000
      4 C7          -1.2880    -0.3860    -0.0350 c6         1 MFS       0.394300
      5 C8          -2.5640    -0.9170     0.6970 c6         1 MFS       0.142300
      6 C9          -3.8260    -0.5560    -0.1370 c6         1 MFS       0.148300
      7 C10         -3.8640     0.9740    -0.4600 c6         1 MFS       0.116300
      8 C11         -2.5390     1.3560    -1.1770 c6         1 MFS       0.177300
      9 C12         -2.4520     2.8750    -1.4970 c3         1 MFS       0.170600
     10 C13          5.5030     3.2770     1.9680 c3         1 MFS      -0.154100
     11 C16          0.6260     2.3390     1.7440 c          1 MFS       0.613100
     12 C5           1.8250    -1.8370     0.0110 c6         1 MFS       0.149300
     13 C6           0.9960    -2.8580    -0.8200 c3         1 MFS       0.166600
     14 C22         -1.8590    -4.4420     1.8470 c3         1 MFS      -0.160100
     15 O24         -1.3950    -2.3010     2.8800 o          1 MFS      -0.463000
     16 O8          -2.5050    -2.3610     0.8690 os         1 MFS      -0.455100
     17 O9          -5.0270    -1.0000     0.5410 os         1 MFS      -0.442100
     18 C25         -6.2080    -1.1320    -0.1400 c          1 MFS       0.607100
     19 C26         -7.3370    -1.5760     0.7760 c3         1 MFS      -0.155100
     20 O27         -6.3410    -0.9290    -1.3390 o          1 MFS      -0.478000
     21 O10         -4.0070     1.7710     0.7460 os         1 MFS      -0.437100
     22 C29         -5.2340     2.0760     1.2720 c          1 MFS       0.603100
     23 C28         -5.1030     2.8310     2.5840 c3         1 MFS      -0.156100
     24 O30         -6.3040     1.8030     0.7490 o          1 MFS      -0.487000
     25 O12         -1.2710     3.1290    -2.2870 os         1 MFS      -0.441100
     26 C31         -0.9770     4.4270    -2.6040 c          1 MFS       0.593100
     27 C32          0.3070     4.5270    -3.4130 c3         1 MFS      -0.156100
     28 O33         -1.6550     5.3920    -2.2800 o          1 MFS      -0.490000
     29 O11         -1.4190     1.0160    -0.3260 os         1 MFS      -0.457000
     30 C4           1.1540    -0.4370     0.1200 c6         1 MFS       0.138300
     31 O3           1.5370     1.9080     0.8160 os         1 MFS      -0.439100
     32 C17          0.1200     3.7350     1.4140 c3         1 MFS      -0.150100
     33 O18          0.2810     1.7090     2.7340 o          1 MFS      -0.473000
     34 O2           4.4370     1.3400     1.0610 os         1 MFS      -0.448100
     35 O15          4.0150     3.3670     0.0600 o          1 MFS      -0.469000
     36 C1           4.0580    -0.8740     0.1060 c6         1 MFS      -0.051700
     37 SAI          5.7030    -0.9290    -0.7210 s6         1 MFS       1.196100
     38 OAM          5.6730    -0.1610    -1.9640 o          1 MFS      -0.525500
     39 OAE          6.7900    -0.7740     0.2470 o          1 MFS      -0.525500
     40 NAJ          5.7250    -2.5000    -1.2020 n8         1 MFS      -1.030100
     41 O5           3.1120    -1.7020    -0.6300 os         1 MFS      -0.412000
     42 O6           1.6100    -4.1590    -0.7240 os         1 MFS      -0.442100
     43 C19          0.9980    -5.2030    -1.3630 c          1 MFS       0.594100
     44 C20          1.7650    -6.5030    -1.1730 c3         1 MFS      -0.156100
     45 O21         -0.0380    -5.1120    -2.0050 o          1 MFS      -0.488000
     46 H2           3.4770     1.0190    -0.7700 h1         1 MFS       0.109700
     47 H3           2.1920     0.2540     1.9100 h1         1 MFS       0.097700
     48 H7          -1.1580    -0.9450    -0.9740 h2         1 MFS       0.035700
     49 H8          -2.6440    -0.4240     1.6770 h1         1 MFS       0.122700
     50 H9          -3.7510    -1.1070    -1.0870 h1         1 MFS       0.083700
     51 H10         -4.6970     1.1920    -1.1450 h1         1 MFS       0.097700
     52 H11         -2.4570     0.8010    -2.1240 h1         1 MFS       0.060700
     53 H12         -3.3540     3.1770    -2.0450 h1         1 MFS       0.066700
     54 H12A        -2.4220     3.4360    -0.5530 h1         1 MFS       0.066700
     55 H13          6.4570     2.7410     1.9190 hc         1 MFS       0.075367
     56 H13A         5.6350     4.3590     1.8640 hc         1 MFS       0.075367
     57 H13B         5.1340     3.0030     2.9620 hc         1 MFS       0.075367
     58 H5           1.9670    -2.2500     1.0200 h1         1 MFS       0.073700
     59 H6          -0.0250    -2.8960    -0.4220 h1         1 MFS       0.067200
     60 H6A          0.9490    -2.5180    -1.8630 h1         1 MFS       0.067200
     61 H22         -1.3570    -4.9150     2.6980 hc         1 MFS       0.073033
     62 H22A        -2.8900    -4.7960     1.7340 hc         1 MFS       0.073033
     63 H22B        -1.4090    -4.7310     0.8910 hc         1 MFS       0.073033
     64 H26         -7.4190    -0.8640     1.6040 hc         1 MFS       0.074367
     65 H26A        -8.2880    -1.6970     0.2450 hc         1 MFS       0.074367
     66 H26B        -7.0340    -2.4950     1.2880 hc         1 MFS       0.074367
     67 H28         -4.4660     3.7070     2.4250 hc         1 MFS       0.075033
     68 H28A        -6.0740     3.1020     3.0140 hc         1 MFS       0.075033
     69 H28B        -4.5020     2.2300     3.2760 hc         1 MFS       0.075033
     70 H32          0.2190     3.8850    -4.2960 hc         1 MFS       0.073033
     71 H32A         0.5590     5.5590    -3.6790 hc         1 MFS       0.073033
     72 H32B         1.1130     4.0410    -2.8520 hc         1 MFS       0.073033
     73 H4           0.9980    -0.0510    -0.8990 h1         1 MFS       0.076700
     74 H17         -0.1970     3.7620     0.3670 hc         1 MFS       0.068033
     75 H17A        -0.6670     4.0710     2.0980 hc         1 MFS       0.068033
     76 H17B         0.9730     4.4210     1.4160 hc         1 MFS       0.068033
     77 H1           4.2640    -1.3090     1.0930 h2         1 MFS       0.098700
     78 HNAJ         4.7260    -2.7160    -1.1760 hn         1 MFS       0.491500
     79 HNAA         5.9180    -2.3940    -2.1950 hn         1 MFS       0.491500
     80 H20          1.8930    -6.6830    -0.1000 hc         1 MFS       0.071367
     81 H20A         1.2880    -7.3520    -1.6760 hc         1 MFS       0.071367
     82 H20B         2.7970    -6.3560    -1.5080 hc         1 MFS       0.071367
     83 C14          4.5630     2.6990     0.9230 c          1 MFS       0.608100
     84 C23         -1.8740    -2.9250     1.9450 c          1 MFS       0.604100
@<TRIPOS>BOND
     1     1     2 1   
     2     1    34 1   
     3     1    36 1   
     4     1    46 1   
     5     2    30 1   
     6     2    31 1   
     7     2    47 1   
     8     3     4 1   
     9     3    30 1   
    10     4     5 1   
    11     4    29 1   
    12     4    48 1   
    13     5     6 1   
    14     5    16 1   
    15     5    49 1   
    16     6     7 1   
    17     6    17 1   
    18     6    50 1   
    19     7     8 1   
    20     7    21 1   
    21     7    51 1   
    22     8     9 1   
    23     8    29 1   
    24     8    52 1   
    25     9    25 1   
    26     9    53 1   
    27     9    54 1   
    28    10    55 1   
    29    10    56 1   
    30    10    57 1   
    31    10    83 1   
    32    11    31 1   
    33    11    32 1   
    34    11    33 2   
    35    12    13 1   
    36    12    30 1   
    37    12    41 1   
    38    12    58 1   
    39    13    42 1   
    40    13    59 1   
    41    13    60 1   
    42    14    61 1   
    43    14    62 1   
    44    14    63 1   
    45    14    84 1   
    46    15    84 2   
    47    16    84 1   
    48    17    18 1   
    49    18    19 1   
    50    18    20 2   
    51    19    64 1   
    52    19    65 1   
    53    19    66 1   
    54    21    22 1   
    55    22    23 1   
    56    22    24 2   
    57    23    67 1   
    58    23    68 1   
    59    23    69 1   
    60    25    26 1   
    61    26    27 1   
    62    26    28 2   
    63    27    70 1   
    64    27    71 1   
    65    27    72 1   
    66    30    73 1   
    67    32    74 1   
    68    32    75 1   
    69    32    76 1   
    70    34    83 1   
    71    35    83 2   
    72    36    37 1   
    73    36    41 1   
    74    36    77 1   
    75    37    38 2   
    76    37    39 2   
    77    37    40 1   
    78    40    78 1   
    79    40    79 1   
    80    42    43 1   
    81    43    44 1   
    82    43    45 2   
    83    44    80 1   
    84    44    81 1   
    85    44    82 1   
@<TRIPOS>SUBSTRUCTURE
     1 MFS         1 TEMP              0 ****  ****    0 ROOT
