@<TRIPOS>MOLECULE
MFS
   84    85     1     0     0
SMALL
bcc


@<TRIPOS>ATOM
      1 C2           3.3480     0.5740     0.1450 c6         1 MFS       0.130100
      2 C3           1.9210     0.5400     0.6800 c6         1 MFS       0.133100
      3 O4          -0.1860    -0.5750     0.5450 os         1 MFS      -0.381600
      4 C7          -1.3040    -0.2710    -0.2030 c6         1 MFS       0.347900
      5 C8          -2.5090    -0.8770     0.5130 c6         1 MFS       0.119100
      6 C9          -3.7960    -0.4590    -0.1850 c6         1 MFS       0.125100
      7 C10         -3.8550     1.0560    -0.3580 c6         1 MFS       0.093100
      8 C11         -2.5650     1.5140    -1.0300 c6         1 MFS       0.154100
      9 C12         -2.5370     3.0130    -1.2160 c3         1 MFS       0.147400
     10 C13          5.6410     3.0670     1.5760 c3         1 MFS      -0.154100
     11 C16          0.7210     2.4140     1.5260 c          1 MFS       0.662100
     12 C5           1.7740    -1.8300    -0.0490 c6         1 MFS       0.126100
     13 C6           1.0590    -2.8650    -0.8850 c3         1 MFS       0.143400
     14 C22         -2.3640    -4.4870     1.2300 c3         1 MFS      -0.160100
     15 O24         -2.3790    -2.5560     2.6600 o          1 MFS      -0.512000
     16 O8          -2.4160    -2.2910     0.4330 os         1 MFS      -0.431900
     17 O9          -4.8570    -0.9400     0.6230 os         1 MFS      -0.418900
     18 C25         -6.0460    -1.1770     0.0530 c          1 MFS       0.656100
     19 C26         -7.0530    -1.6240     1.0650 c3         1 MFS      -0.155100
     20 O27         -6.2550    -1.0260    -1.1210 o          1 MFS      -0.527000
     21 O10         -3.9320     1.6820     0.9160 os         1 MFS      -0.413900
     22 C29         -5.1270     2.0060     1.4220 c          1 MFS       0.652100
     23 C28         -4.9800     2.6360     2.7720 c3         1 MFS      -0.156100
     24 O30         -6.1680     1.8170     0.8480 o          1 MFS      -0.536000
     25 O12         -1.4040     3.3150    -2.0260 os         1 MFS      -0.417900
     26 C31         -1.2310     4.5820    -2.3910 c          1 MFS       0.642100
     27 C32          0.0160     4.7750    -3.2010 c3         1 MFS      -0.156100
     28 O33         -1.9870     5.4670    -2.0770 o          1 MFS      -0.539000
     29 O11         -1.4480     1.1200    -0.2660 os         1 MFS      -0.410600
     30 C4           1.0700    -0.4680    -0.0880 c6         1 MFS       0.115100
     31 O3           1.3910     1.8410     0.5200 os         1 MFS      -0.415900
     32 C17          0.2580     3.7890     1.1570 c3         1 MFS      -0.150100
     33 O18          0.5540     1.9030     2.6010 o          1 MFS      -0.522000
     34 O2           4.1060     1.3960     1.0100 os         1 MFS      -0.424900
     35 O15          4.9040     2.6450    -0.6710 o          1 MFS      -0.518000
     36 C1           3.8940    -0.8520     0.1750 c6         1 MFS       0.035900
     37 SAI          5.5280    -0.9670    -0.6070 s6         1 MFS       1.226900
     38 OAM          5.3460    -0.6300    -2.0090 o          1 MFS      -0.596800
     39 OAE          6.4670    -0.2130     0.2090 o          1 MFS      -0.596800
     40 NAJ          5.8640    -2.5600    -0.4090 n8         1 MFS      -0.919700
     41 O5           3.0790    -1.6850    -0.5800 os         1 MFS      -0.365600
     42 O6           1.7610    -4.0920    -0.7200 os         1 MFS      -0.418900
     43 C19          1.1970    -5.1980    -1.2010 c          1 MFS       0.643100
     44 C20          2.0470    -6.4040    -0.9420 c3         1 MFS      -0.156100
     45 O21          0.1270    -5.2020    -1.7560 o          1 MFS      -0.537000
     46 H2           3.3550     0.9520    -0.8810 h1         1 MFS       0.109700
     47 H3           1.9390     0.2550     1.7380 h1         1 MFS       0.097700
     48 H7          -1.2250    -0.6810    -1.2260 h2         1 MFS       0.035700
     49 H8          -2.5080    -0.5400     1.5530 h1         1 MFS       0.122700
     50 H9          -3.8350    -0.9110    -1.1820 h1         1 MFS       0.083700
     51 H10         -4.7050     1.3300    -0.9870 h1         1 MFS       0.097700
     52 H11         -2.5410     1.0420    -2.0240 h1         1 MFS       0.060700
     53 H12         -3.4580     3.3270    -1.7130 h1         1 MFS       0.066700
     54 H12A        -2.4700     3.5320    -0.2580 h1         1 MFS       0.066700
     55 H13          6.5120     2.4580     1.8250 hc         1 MFS       0.075367
     56 H13A         5.9890     4.0360     1.2310 hc         1 MFS       0.075367
     57 H13B         5.0560     3.1880     2.4860 hc         1 MFS       0.075367
     58 H5           1.8250    -2.1760     0.9940 h1         1 MFS       0.073700
     59 H6           0.0280    -2.9630    -0.5450 h1         1 MFS       0.067200
     60 H6A          1.0460    -2.5700    -1.9380 h1         1 MFS       0.067200
     61 H22         -2.0650    -5.0640     2.1000 hc         1 MFS       0.073033
     62 H22A        -3.3690    -4.7990     0.9380 hc         1 MFS       0.073033
     63 H22B        -1.7040    -4.7150     0.3950 hc         1 MFS       0.073033
     64 H26         -7.4650    -0.7450     1.5640 hc         1 MFS       0.074367
     65 H26A        -7.8690    -2.1520     0.5790 hc         1 MFS       0.074367
     66 H26B        -6.6090    -2.2580     1.8300 hc         1 MFS       0.074367
     67 H28         -4.3560     3.5290     2.7100 hc         1 MFS       0.075033
     68 H28A        -5.9520     2.9070     3.1730 hc         1 MFS       0.075033
     69 H28B        -4.4880     1.9470     3.4590 hc         1 MFS       0.075033
     70 H32          0.4330     3.8400    -3.5630 hc         1 MFS       0.073033
     71 H32A        -0.1930     5.4320    -4.0430 hc         1 MFS       0.073033
     72 H32B         0.7660     5.2720    -2.5840 hc         1 MFS       0.073033
     73 H4           0.9650    -0.1410    -1.1310 h1         1 MFS       0.076700
     74 H17          0.2940     3.9640     0.0870 hc         1 MFS       0.068033
     75 H17A        -0.7540     3.9480     1.5240 hc         1 MFS       0.068033
     76 H17B         0.8980     4.5240     1.6490 hc         1 MFS       0.068033
     77 H1           4.0240    -1.2010     1.2090 h2         1 MFS       0.098700
     78 HNAJ         5.6270    -3.1410    -1.2020 hn         1 MFS       0.436300
     79 HNAA         6.8040    -2.7290    -0.0710 hn         1 MFS       0.436300
     80 H20          2.0760    -6.6120     0.1280 hc         1 MFS       0.071367
     81 H20A         1.6430    -7.2700    -1.4570 hc         1 MFS       0.071367
     82 H20B         3.0730    -6.2360    -1.2680 hc         1 MFS       0.071367
     83 C14          4.8630     2.3810     0.4990 c          1 MFS       0.657100
     84 C23         -2.3770    -3.0250     1.5540 c          1 MFS       0.653100
@<TRIPOS>BOND
     1     1     2 1   
     2     1    34 1   
     3     1    36 1   
     4     1    46 1   
     5     2    30 1   
     6     2    31 1   
     7     2    47 1   
     8     3     4 1   
     9     3    30 1   
    10     4     5 1   
    11     4    29 1   
    12     4    48 1   
    13     5     6 1   
    14     5    16 1   
    15     5    49 1   
    16     6     7 1   
    17     6    17 1   
    18     6    50 1   
    19     7     8 1   
    20     7    21 1   
    21     7    51 1   
    22     8     9 1   
    23     8    29 1   
    24     8    52 1   
    25     9    25 1   
    26     9    53 1   
    27     9    54 1   
    28    10    55 1   
    29    10    56 1   
    30    10    57 1   
    31    10    83 1   
    32    11    31 1   
    33    11    32 1   
    34    11    33 2   
    35    12    13 1   
    36    12    30 1   
    37    12    41 1   
    38    12    58 1   
    39    13    42 1   
    40    13    59 1   
    41    13    60 1   
    42    14    61 1   
    43    14    62 1   
    44    14    63 1   
    45    14    84 1   
    46    15    84 2   
    47    16    84 1   
    48    17    18 1   
    49    18    19 1   
    50    18    20 2   
    51    19    64 1   
    52    19    65 1   
    53    19    66 1   
    54    21    22 1   
    55    22    23 1   
    56    22    24 2   
    57    23    67 1   
    58    23    68 1   
    59    23    69 1   
    60    25    26 1   
    61    26    27 1   
    62    26    28 2   
    63    27    70 1   
    64    27    71 1   
    65    27    72 1   
    66    30    73 1   
    67    32    74 1   
    68    32    75 1   
    69    32    76 1   
    70    34    83 1   
    71    35    83 2   
    72    36    37 1   
    73    36    41 1   
    74    36    77 1   
    75    37    38 2   
    76    37    39 2   
    77    37    40 1   
    78    40    78 1   
    79    40    79 1   
    80    42    43 1   
    81    43    44 1   
    82    43    45 2   
    83    44    80 1   
    84    44    81 1   
    85    44    82 1   
@<TRIPOS>SUBSTRUCTURE
     1 MFS         1 TEMP              0 ****  ****    0 ROOT
