@<TRIPOS>MOLECULE
MFU
   26    26     1     0     0
SMALL
bcc


@<TRIPOS>ATOM
      1 C1           4.2280   -10.3670     6.6250 c6         1 MFU       0.337900
      2 C2           4.6420    -9.2640     5.6500 c6         1 MFU       0.140100
      3 C3           3.4150    -8.4870     5.1850 c6         1 MFU       0.117100
      4 C4           2.6400    -7.9540     6.3910 c6         1 MFU       0.092100
      5 C5           2.3030    -9.1360     7.3050 c6         1 MFU       0.115100
      6 C6           1.5910    -8.7300     8.5800 c3         1 MFU      -0.092100
      7 O1           3.5330   -11.3420     5.9200 os         1 MFU      -0.420600
      8 O2           5.3390    -9.8540     4.5830 oh         1 MFU      -0.583800
      9 O3           3.8670    -7.4750     4.3170 oh         1 MFU      -0.588800
     10 O4           3.4170    -6.9720     7.0310 oh         1 MFU      -0.572800
     11 O5           3.4870    -9.8310     7.6830 os         1 MFU      -0.422600
     12 CM           3.2670   -12.5150     6.6560 c3         1 MFU       0.126700
     13 H1           5.1200   -10.8030     7.0960 h2         1 MFU       0.080700
     14 H2           5.2960    -8.5810     6.2110 h1         1 MFU       0.071700
     15 H3           2.7450    -9.1790     4.6550 h1         1 MFU       0.056700
     16 H4           1.6870    -7.5330     6.0340 h1         1 MFU       0.029700
     17 H5           1.6350    -9.8010     6.7420 h1         1 MFU       0.048700
     18 H61          1.2980    -9.6080     9.1550 hc         1 MFU       0.045700
     19 H62          2.2170    -8.1050     9.2180 hc         1 MFU       0.045700
     20 H63          0.6840    -8.1740     8.3400 hc         1 MFU       0.045700
     21 HO2          5.5930    -9.1500     3.9770 ho         1 MFU       0.421000
     22 HO3          3.1120    -7.1180     3.8390 ho         1 MFU       0.408000
     23 HO4          2.8620    -6.5020     7.6600 ho         1 MFU       0.403000
     24 HM1          2.8900   -13.2610     5.9570 h1         1 MFU       0.032033
     25 HM2          4.1720   -12.9110     7.1290 h1         1 MFU       0.032033
     26 HM3          2.5140   -12.3620     7.4340 h1         1 MFU       0.032033
@<TRIPOS>BOND
     1     1     2 1   
     2     1     7 1   
     3     1    11 1   
     4     1    13 1   
     5     2     3 1   
     6     2     8 1   
     7     2    14 1   
     8     3     4 1   
     9     3     9 1   
    10     3    15 1   
    11     4     5 1   
    12     4    10 1   
    13     4    16 1   
    14     5     6 1   
    15     5    11 1   
    16     5    17 1   
    17     6    18 1   
    18     6    19 1   
    19     6    20 1   
    20     7    12 1   
    21     8    21 1   
    22     9    22 1   
    23    10    23 1   
    24    12    24 1   
    25    12    25 1   
    26    12    26 1   
@<TRIPOS>SUBSTRUCTURE
     1 MFU         1 TEMP              0 ****  ****    0 ROOT
