@<TRIPOS>MOLECULE
MFU
   26    26     1     0     0
SMALL
No Charge or Current Charge


@<TRIPOS>ATOM
      1 C1           4.2820   -10.3620     6.6190 c6         1 MFU       0.384300
      2 C2           4.6760    -9.2570     5.5720 c6         1 MFU       0.163300
      3 C3           3.3990    -8.5200     5.0580 c6         1 MFU       0.140300
      4 C4           2.5690    -7.9680     6.2530 c6         1 MFU       0.115300
      5 C5           2.2550    -9.1560     7.2230 c6         1 MFU       0.138300
      6 C6           1.4650    -8.7330     8.4890 c3         1 MFU      -0.092100
      7 O1           3.5620   -11.4580     6.0100 os         1 MFU      -0.467000
      8 O2           5.4310    -9.7740     4.4470 oh         1 MFU      -0.706000
      9 O3           3.7640    -7.4380     4.1830 oh         1 MFU      -0.651000
     10 O4           3.3090    -6.9040     6.8960 oh         1 MFU      -0.695000
     11 O5           3.4750    -9.7870     7.6770 os         1 MFU      -0.469000
     12 CM           3.3210   -12.6020     6.8460 c3         1 MFU       0.149900
     13 H1           5.2140   -10.7530     7.0560 h2         1 MFU       0.080700
     14 H2           5.2930    -8.5220     6.1110 h1         1 MFU       0.071700
     15 H3           2.7760    -9.2460     4.5130 h1         1 MFU       0.056700
     16 H4           1.6160    -7.5770     5.8680 h1         1 MFU       0.029700
     17 H5           1.6450    -9.8990     6.6880 h1         1 MFU       0.048700
     18 H61          1.1890    -9.6120     9.0840 hc         1 MFU       0.045700
     19 H62          2.0510    -8.0680     9.1330 hc         1 MFU       0.045700
     20 H63          0.5370    -8.2150     8.2190 hc         1 MFU       0.045700
     21 HO2          5.3040    -9.1060     3.7310 ho         1 MFU       0.520000
     22 HO3          3.8410    -6.6600     4.7840 ho         1 MFU       0.447000
     23 HO4          2.8150    -6.6570     7.7110 ho         1 MFU       0.502000
     24 HM1          2.7950   -13.3820     6.2820 h1         1 MFU       0.032033
     25 HM2          4.2670   -13.0240     7.2110 h1         1 MFU       0.032033
     26 HM3          2.7030   -12.3340     7.7120 h1         1 MFU       0.032033
@<TRIPOS>BOND
     1     1     2 1   
     2     1     7 1   
     3     1    11 1   
     4     1    13 1   
     5     2     3 1   
     6     2     8 1   
     7     2    14 1   
     8     3     4 1   
     9     3     9 1   
    10     3    15 1   
    11     4     5 1   
    12     4    10 1   
    13     4    16 1   
    14     5     6 1   
    15     5    11 1   
    16     5    17 1   
    17     6    18 1   
    18     6    19 1   
    19     6    20 1   
    20     7    12 1   
    21     8    21 1   
    22     9    22 1   
    23    10    23 1   
    24    12    24 1   
    25    12    25 1   
    26    12    26 1   
@<TRIPOS>SUBSTRUCTURE
     1 MFU         1 TEMP              0 ****  ****    0 ROOT
