@<TRIPOS>MOLECULE
MFV
   42    43     1     0     0
SMALL
No Charge or Current Charge


@<TRIPOS>ATOM
      1 N1          -1.1790    -2.5480    -2.1050 n8         1 MFV      -1.013200
      2 CA1         -1.9960    -1.7190    -1.1390 c3         1 MFV       0.114200
      3 CB1         -2.4370    -2.5400     0.1200 c3         1 MFV       0.120300
      4 CG1         -3.4350    -3.6720    -0.2120 c3         1 MFV      -0.126100
      5 OG1         -1.2990    -3.1210     0.7800 oh         1 MFV      -0.625000
      6 C1          -1.3550    -0.3750    -0.7340 cc         1 MFV       0.506900
      7 N2          -0.0250    -0.1900    -0.6720 nd         1 MFV      -0.658300
      8 N3          -2.0930     0.7590    -0.4120 n          1 MFV      -0.307300
      9 C2          -1.2420     1.7900    -0.0970 c          1 MFV       0.542200
     10 O2          -1.5260     2.9330     0.2410 o          1 MFV      -0.502000
     11 CA2          0.0710     1.1420    -0.2810 cd         1 MFV       0.035400
     12 CA3         -3.5760     0.8960    -0.3340 c3         1 MFV      -0.051000
     13 C3          -4.1230     1.1300     1.0930 c          1 MFV       0.712000
     14 O3          -3.7570     0.3750     1.9820 o          1 MFV      -0.712500
     15 CB2          1.2850     1.7680    -0.0740 ce         1 MFV      -0.104200
     16 CG2          2.6760     1.2230    -0.0180 ca         1 MFV      -0.066800
     17 CD1          2.9430    -0.1080     0.3670 ca         1 MFV      -0.042000
     18 CD2          3.7530     2.0740    -0.3270 ca         1 MFV      -0.068000
     19 CE1          4.2670    -0.5930     0.4250 ca         1 MFV      -0.121300
     20 CE2          5.0740     1.5990    -0.2730 ca         1 MFV      -0.218000
     21 CZ           5.3320     0.2720     0.0990 ca         1 MFV       0.127100
     22 OH           6.6240    -0.1650     0.1450 oh         1 MFV      -0.540100
     23 CS           4.5270    -2.0370     0.8430 c3         1 MFV      -0.027800
     24 O1          -4.8960     2.0610     1.2720 o          1 MFV      -0.712500
     25 H1          -0.2390    -2.6720    -1.7080 hn         1 MFV       0.405500
     26 H2          -1.5640    -3.4970    -2.1620 hn         1 MFV       0.405500
     27 H4          -2.9180    -1.4680    -1.6810 h1         1 MFV       0.078700
     28 H5          -2.9500    -1.8450     0.8030 h1         1 MFV       0.139700
     29 H6          -2.9900    -4.4230    -0.8750 hc         1 MFV       0.035033
     30 H7          -3.7600    -4.1770     0.7060 hc         1 MFV       0.035033
     31 H8          -4.3270    -3.2650    -0.7040 hc         1 MFV       0.035033
     32 H9          -1.0090    -3.8850     0.2390 ho         1 MFV       0.412000
     33 H10         -3.8780     1.7420    -0.9640 h1         1 MFV       0.038200
     34 H11         -4.0670     0.0000    -0.7300 h1         1 MFV       0.038200
     35 H12          1.2110     2.8320     0.1590 ha         1 MFV       0.184000
     36 H14          2.1230    -0.7680     0.6360 ha         1 MFV       0.153000
     37 H15          3.5660     3.1060    -0.6170 ha         1 MFV       0.110000
     38 H16          5.8930     2.2710    -0.5210 ha         1 MFV       0.102000
     39 H17          5.0510    -2.5870     0.0510 hc         1 MFV       0.036700
     40 H18          5.1460    -2.0790     1.7470 hc         1 MFV       0.036700
     41 H19          3.5970    -2.5760     1.0560 hc         1 MFV       0.036700
     42 H3           7.2090     0.5790    -0.1120 ho         1 MFV       0.455000
@<TRIPOS>BOND
     1     1     2 1   
     2     1    25 1   
     3     1    26 1   
     4     2     3 1   
     5     2     6 1   
     6     2    27 1   
     7     3     4 1   
     8     3     5 1   
     9     3    28 1   
    10     4    29 1   
    11     4    30 1   
    12     4    31 1   
    13     5    32 1   
    14     6     7 2   
    15     6     8 1   
    16     7    11 1   
    17     8     9 1   
    18     8    12 1   
    19     9    10 2   
    20     9    11 1   
    21    11    15 2   
    22    12    13 1   
    23    12    33 1   
    24    12    34 1   
    25    13    14 1   
    26    13    24 1   
    27    15    16 1   
    28    15    35 1   
    29    16    17 ar  
    30    16    18 ar  
    31    17    19 ar  
    32    17    36 1   
    33    18    20 ar  
    34    18    37 1   
    35    19    21 ar  
    36    19    23 1   
    37    20    21 ar  
    38    20    38 1   
    39    21    22 1   
    40    22    42 1   
    41    23    39 1   
    42    23    40 1   
    43    23    41 1   
@<TRIPOS>SUBSTRUCTURE
     1 MFV         1 TEMP              0 ****  ****    0 ROOT
