@<TRIPOS>MOLECULE
MFV
   42    43     1     0     0
SMALL
abcg2


@<TRIPOS>ATOM
      1 N1          -1.0030    -2.6640    -1.6030 n8         1 MFV      -1.013200
      2 CA1         -1.9710    -1.8020    -0.9580 c3         1 MFV       0.114200
      3 CB1         -2.5870    -2.3600     0.3550 c3         1 MFV       0.120300
      4 CG1         -3.4800    -3.5580     0.0750 c3         1 MFV      -0.126100
      5 OG1         -1.5840    -2.6520     1.3000 oh         1 MFV      -0.625000
      6 C1          -1.3320    -0.4800    -0.6810 cc         1 MFV       0.506900
      7 N2          -0.0660    -0.3280    -0.4930 nd         1 MFV      -0.658300
      8 N3          -2.0580     0.6860    -0.5860 n          1 MFV      -0.307300
      9 C2          -1.1850     1.7040    -0.2810 c          1 MFV       0.542200
     10 O2          -1.4810     2.8730    -0.1240 o          1 MFV      -0.502000
     11 CA2          0.1270     1.0220    -0.2350 cd         1 MFV       0.035400
     12 CA3         -3.4820     0.8880    -0.6620 c3         1 MFV      -0.051000
     13 C3          -4.1540     1.1090     0.7130 c          1 MFV       0.712000
     14 O3          -3.4760     0.8700     1.7240 o          1 MFV      -0.712500
     15 CB2          1.2820     1.6740     0.0070 ce         1 MFV      -0.104200
     16 CG2          2.6340     1.1650     0.0770 ca         1 MFV      -0.066800
     17 CD1          2.9720    -0.1920    -0.0650 ca         1 MFV      -0.042000
     18 CD2          3.6720     2.0740     0.3010 ca         1 MFV      -0.068000
     19 CE1          4.2770    -0.6390     0.0110 ca         1 MFV      -0.121300
     20 CE2          4.9860     1.6540     0.3770 ca         1 MFV      -0.218000
     21 CZ           5.2940     0.3040     0.2340 ca         1 MFV       0.127100
     22 OH           6.5530    -0.1580     0.2990 oh         1 MFV      -0.540100
     23 CS           4.6140    -2.0930    -0.1370 c3         1 MFV      -0.027800
     24 O1          -5.3370     1.4900     0.6500 o          1 MFV      -0.712500
     25 H1          -0.1700    -2.7610    -1.0380 hn         1 MFV       0.405500
     26 H2          -1.3880    -3.5860    -1.7550 hn         1 MFV       0.405500
     27 H4          -2.7970    -1.6470    -1.6610 h1         1 MFV       0.078700
     28 H5          -3.1910    -1.5750     0.8150 h1         1 MFV       0.139700
     29 H6          -2.9300    -4.3800    -0.3910 hc         1 MFV       0.035033
     30 H7          -3.9160    -3.9350     1.0010 hc         1 MFV       0.035033
     31 H8          -4.2970    -3.2860    -0.5930 hc         1 MFV       0.035033
     32 H9          -1.0670    -3.3960     0.9740 ho         1 MFV       0.412000
     33 H10         -3.6820     1.7390    -1.3160 h1         1 MFV       0.038200
     34 H11         -3.9400     0.0230    -1.1440 h1         1 MFV       0.038200
     35 H12          1.1810     2.7430     0.1690 ha         1 MFV       0.184000
     36 H14          2.1840    -0.9130    -0.2360 ha         1 MFV       0.153000
     37 H15          3.4500     3.1280     0.4140 ha         1 MFV       0.110000
     38 H16          5.7760     2.3760     0.5480 ha         1 MFV       0.102000
     39 H17          5.3030    -2.2670    -0.9660 hc         1 MFV       0.036700
     40 H18          5.0900    -2.4910     0.7610 hc         1 MFV       0.036700
     41 H19          3.7160    -2.6790    -0.3220 hc         1 MFV       0.036700
     42 H3           7.1730     0.5640     0.4540 ho         1 MFV       0.455000
@<TRIPOS>BOND
     1     1     2 1   
     2     1    25 1   
     3     1    26 1   
     4     2     3 1   
     5     2     6 1   
     6     2    27 1   
     7     3     4 1   
     8     3     5 1   
     9     3    28 1   
    10     4    29 1   
    11     4    30 1   
    12     4    31 1   
    13     5    32 1   
    14     6     7 2   
    15     6     8 1   
    16     7    11 1   
    17     8     9 1   
    18     8    12 1   
    19     9    10 2   
    20     9    11 1   
    21    11    15 2   
    22    12    13 1   
    23    12    33 1   
    24    12    34 1   
    25    13    14 1   
    26    13    24 1   
    27    15    16 1   
    28    15    35 1   
    29    16    17 ar  
    30    16    18 ar  
    31    17    19 ar  
    32    17    36 1   
    33    18    20 ar  
    34    18    37 1   
    35    19    21 ar  
    36    19    23 1   
    37    20    21 ar  
    38    20    38 1   
    39    21    22 1   
    40    22    42 1   
    41    23    39 1   
    42    23    40 1   
    43    23    41 1   
@<TRIPOS>SUBSTRUCTURE
     1 MFV         1 TEMP              0 ****  ****    0 ROOT
