@<TRIPOS>MOLECULE
MFW
   14    14     1     0     0
SMALL
No Charge or Current Charge


@<TRIPOS>ATOM
      1 C1           1.2970     0.8300    -0.2740 c5         1 MFW      -0.077400
      2 O1          -1.7090     0.0050    -0.8460 o          1 MFW      -0.516100
      3 C2           1.4740    -0.7120    -0.1040 c5         1 MFW      -0.077400
      4 C3           0.0510    -1.2320     0.2860 c5         1 MFW      -0.193900
      5 C4          -0.9160    -0.0590     0.0850 c          1 MFW       0.572100
      6 C5          -0.0270     1.1190     0.4830 c5         1 MFW      -0.193900
      7 H1           2.1450     1.3970     0.1260 hc         1 MFW       0.048950
      8 H2           1.2040     1.0950    -1.3350 hc         1 MFW       0.048950
      9 H4           1.8370    -1.1710    -1.0320 hc         1 MFW       0.048950
     10 H5           2.2080    -0.9490     0.6750 hc         1 MFW       0.048950
     11 H6          -0.2570    -2.1020    -0.3030 hc         1 MFW       0.072450
     12 H7           0.0720    -1.4710     1.3550 hc         1 MFW       0.072450
     13 H9           0.1640     1.0870     1.5620 hc         1 MFW       0.072450
     14 H10         -0.4730     2.0740     0.1840 hc         1 MFW       0.072450
@<TRIPOS>BOND
     1     1     3 1   
     2     1     6 1   
     3     1     7 1   
     4     1     8 1   
     5     2     5 2   
     6     3     4 1   
     7     3     9 1   
     8     3    10 1   
     9     4     5 1   
    10     4    11 1   
    11     4    12 1   
    12     5     6 1   
    13     6    13 1   
    14     6    14 1   
@<TRIPOS>SUBSTRUCTURE
     1 MFW         1 TEMP              0 ****  ****    0 ROOT
