@<TRIPOS>MOLECULE
MFW
   14    14     1     0     0
SMALL
bcc


@<TRIPOS>ATOM
      1 C1           1.4050     0.7470    -0.2350 c5         1 MFW      -0.077400
      2 O1          -2.0430    -0.0570     0.2270 o          1 MFW      -0.516100
      3 C2           1.4730    -0.7180     0.2130 c5         1 MFW      -0.077400
      4 C3           0.0590    -1.2400    -0.0330 c5         1 MFW      -0.193900
      5 C4          -0.8380    -0.0330     0.1560 c          1 MFW       0.572100
      6 C5           0.0280     1.2070     0.2350 c5         1 MFW      -0.193900
      7 H1           2.2160     1.3500     0.1720 hc         1 MFW       0.048950
      8 H2           1.4680     0.8060    -1.3240 hc         1 MFW       0.048950
      9 H4           2.2330    -1.2880    -0.3200 hc         1 MFW       0.048950
     10 H5           1.7100    -0.7700     1.2780 hc         1 MFW       0.048950
     11 H6          -0.0570    -1.5720    -1.0710 hc         1 MFW       0.072450
     12 H7          -0.2460    -2.0720     0.6030 hc         1 MFW       0.072450
     13 H9           0.0610     1.5120     1.2870 hc         1 MFW       0.072450
     14 H10         -0.4010     2.0380    -0.3260 hc         1 MFW       0.072450
@<TRIPOS>BOND
     1     1     3 1   
     2     1     6 1   
     3     1     7 1   
     4     1     8 1   
     5     2     5 2   
     6     3     4 1   
     7     3     9 1   
     8     3    10 1   
     9     4     5 1   
    10     4    11 1   
    11     4    12 1   
    12     5     6 1   
    13     6    13 1   
    14     6    14 1   
@<TRIPOS>SUBSTRUCTURE
     1 MFW         1 TEMP              0 ****  ****    0 ROOT
