@<TRIPOS>MOLECULE
MFX
   52    56     1     0     0
SMALL
No Charge or Current Charge


@<TRIPOS>ATOM
      1 F            1.0190    -2.8680    -1.5450 f          1 MFX      -0.201000
      2 O02         -3.9470    -2.2520    -0.9720 o          1 MFX      -0.546100
      3 O03         -6.0890    -1.7850     0.6580 o          1 MFX      -0.714500
      4 O           -6.1020     0.0300     1.7680 o          1 MFX      -0.714500
      5 N01          2.2450    -0.5900    -0.4240 nh         1 MFX      -0.862400
      6 N02          4.9370     1.0230    -0.8300 n7         1 MFX      -0.860400
      7 N           -2.3740     1.1010     0.4710 na         1 MFX      -0.631200
      8 C01          4.3800    -1.0410     0.4700 c5         1 MFX      -0.080700
      9 C02          4.5930    -0.4400    -0.9550 c5         1 MFX       0.153500
     10 C03          2.9810    -0.4760     0.8610 c5         1 MFX       0.257800
     11 C04          3.1690    -0.6450    -1.5980 c5         1 MFX       0.246800
     12 C05          5.5410    -0.7490     1.4570 c6         1 MFX      -0.062400
     13 C06         -2.1420     2.5490     0.3220 cx         1 MFX       0.193500
     14 C07          5.9170     0.7520     1.4520 c6         1 MFX      -0.075400
     15 C08         -1.9470     3.2610    -0.9950 cx         1 MFX      -0.144900
     16 C09         -3.1780     3.5310    -0.1720 cx         1 MFX      -0.144900
     17 C10          6.1340     1.2630     0.0070 c6         1 MFX       0.166800
     18 C11          0.8250    -0.6910    -0.5110 ca         1 MFX       0.294000
     19 C12         -1.4600     0.1240     0.0050 ca         1 MFX       0.337000
     20 C13         -0.0400     0.3270     0.0040 ca         1 MFX       0.011100
     21 C14         -1.9800    -1.0720    -0.4950 ca         1 MFX      -0.213600
     22 C15          0.2480    -1.8630    -1.0590 ca         1 MFX       0.060000
     23 C16         -3.5820     0.7290     1.0830 cc         1 MFX       0.015000
     24 C17         -1.1350    -2.0510    -1.0480 ca         1 MFX      -0.060000
     25 C18         -4.1520    -0.4370     0.5820 cd         1 MFX      -0.300400
     26 C19         -3.4340    -1.3250    -0.3550 c          1 MFX       0.595900
     27 C20         -5.5410    -0.7560     1.0180 c          1 MFX       0.728200
     28 C            1.3060     2.3800    -0.2470 c3         1 MFX       0.136900
     29 H01          4.3230    -2.1340     0.4070 hc         1 MFX       0.053700
     30 H02          5.3750    -0.9710    -1.5140 h1         1 MFX       0.025700
     31 H03          3.0380     0.5660     1.2000 h1         1 MFX       0.047200
     32 H03A         2.5190    -1.0730     1.6600 h1         1 MFX       0.047200
     33 H04          3.1200    -1.6240    -2.0940 h1         1 MFX       0.043200
     34 H04A         2.9420     0.1270    -2.3460 h1         1 MFX       0.043200
     35 H05          5.2690    -1.0710     2.4720 hc         1 MFX       0.037700
     36 H05A         6.4200    -1.3420     1.1660 hc         1 MFX       0.037700
     37 H06         -1.5360     2.8720     1.1710 h1         1 MFX       0.092700
     38 H07          5.1270     1.3410     1.9360 hc         1 MFX       0.045700
     39 H07A         6.8280     0.9120     2.0430 hc         1 MFX       0.045700
     40 HN02         5.1020     1.4120    -1.7660 hn         1 MFX       0.410000
     41 H08         -1.1890     4.0390    -1.0420 hc         1 MFX       0.076950
     42 H08A        -2.0610     2.6760    -1.9040 hc         1 MFX       0.076950
     43 H09         -4.1230     3.1350    -0.5350 hc         1 MFX       0.076950
     44 H09A        -3.2490     4.4860     0.3420 hc         1 MFX       0.076950
     45 H10          7.0020     0.7560    -0.4400 h1         1 MFX       0.022700
     46 H10A         6.3510     2.3400     0.0300 h1         1 MFX       0.022700
     47 H16         -4.0810     1.4430     1.7390 h4         1 MFX       0.226000
     48 H17         -1.5420    -2.9840    -1.4330 ha         1 MFX       0.151000
     49 H            1.4680     3.3260     0.2860 h1         1 MFX       0.036700
     50 HA           2.2900     1.9510    -0.4590 h1         1 MFX       0.036700
     51 HB           0.8200     2.6060    -1.2030 h1         1 MFX       0.036700
     52 O01          0.4870     1.4980     0.5470 os         1 MFX      -0.357100
@<TRIPOS>BOND
     1     1    22 1   
     2     2    26 2   
     3     3    27 1   
     4     4    27 1   
     5     5    10 1   
     6     5    11 1   
     7     5    18 1   
     8     6     9 1   
     9     6    17 1   
    10     6    40 1   
    11     7    13 1   
    12     7    19 1   
    13     7    23 1   
    14     8     9 1   
    15     8    10 1   
    16     8    12 1   
    17     8    29 1   
    18     9    11 1   
    19     9    30 1   
    20    10    31 1   
    21    10    32 1   
    22    11    33 1   
    23    11    34 1   
    24    12    14 1   
    25    12    35 1   
    26    12    36 1   
    27    13    15 1   
    28    13    16 1   
    29    13    37 1   
    30    14    17 1   
    31    14    38 1   
    32    14    39 1   
    33    15    16 1   
    34    15    41 1   
    35    15    42 1   
    36    16    43 1   
    37    16    44 1   
    38    17    45 1   
    39    17    46 1   
    40    18    20 ar  
    41    18    22 ar  
    42    19    20 ar  
    43    19    21 ar  
    44    20    52 1   
    45    21    24 ar  
    46    21    26 1   
    47    22    24 ar  
    48    23    25 2   
    49    23    47 1   
    50    24    48 1   
    51    25    26 1   
    52    25    27 1   
    53    28    49 1   
    54    28    50 1   
    55    28    51 1   
    56    28    52 1   
@<TRIPOS>SUBSTRUCTURE
     1 MFX         1 TEMP              0 ****  ****    0 ROOT
