@<TRIPOS>MOLECULE
MFX
   52    56     1     0     0
SMALL
abcg2


@<TRIPOS>ATOM
      1 F            0.9970    -2.8560    -1.7030 f          1 MFX      -0.201000
      2 O02         -3.8490    -2.3040    -1.2000 o          1 MFX      -0.546100
      3 O03         -6.1410    -1.7000     0.3620 o          1 MFX      -0.714500
      4 O           -6.1520     0.3640     1.1860 o          1 MFX      -0.714500
      5 N01          2.2360    -0.7320    -0.4070 nh         1 MFX      -0.862400
      6 N02          4.6890     0.7910    -1.0590 n7         1 MFX      -0.860400
      7 N           -2.2320     1.0410     0.4750 na         1 MFX      -0.631200
      8 C01          4.3200    -0.9100     0.6510 c5         1 MFX      -0.080700
      9 C02          4.5220    -0.6320    -0.8410 c5         1 MFX       0.153500
     10 C03          2.8710    -0.4830     0.8800 c5         1 MFX       0.257800
     11 C04          3.2060    -1.1200    -1.4220 c5         1 MFX       0.246800
     12 C05          5.3450    -0.2240     1.5470 c6         1 MFX      -0.062400
     13 C06         -1.8510     2.4010     0.7990 cx         1 MFX       0.193500
     14 C07          5.5850     1.2300     1.1520 c6         1 MFX      -0.075400
     15 C08         -1.5600     3.3650    -0.3010 cx         1 MFX      -0.144900
     16 C09         -2.8210     3.5000     0.4900 cx         1 MFX      -0.144900
     17 C10          5.8280     1.3380    -0.3440 c6         1 MFX       0.166800
     18 C11          0.8730    -0.7860    -0.5680 ca         1 MFX       0.294000
     19 C12         -1.3690     0.0960    -0.0750 ca         1 MFX       0.337000
     20 C13          0.0390     0.2250    -0.0620 ca         1 MFX       0.011100
     21 C14         -1.9430    -1.0570    -0.6360 ca         1 MFX      -0.213600
     22 C15          0.2350    -1.8740    -1.1900 ca         1 MFX       0.060000
     23 C16         -3.5250     0.7060     0.6630 cc         1 MFX       0.015000
     24 C17         -1.1170    -2.0130    -1.2340 ca         1 MFX      -0.060000
     25 C18         -4.1460    -0.4280     0.2360 cd         1 MFX      -0.300400
     26 C19         -3.3920    -1.3430    -0.5850 c          1 MFX       0.595900
     27 C20         -5.6070    -0.6080     0.6190 c          1 MFX       0.728200
     28 C            1.3680     2.1520    -0.3560 c3         1 MFX       0.136900
     29 H01          4.3910    -1.9930     0.7960 hc         1 MFX       0.053700
     30 H02          5.3650    -1.2200    -1.2370 h1         1 MFX       0.025700
     31 H03          2.8230     0.5670     1.1810 h1         1 MFX       0.047200
     32 H03A         2.3980    -1.0680     1.6740 h1         1 MFX       0.047200
     33 H04          3.2710    -2.2010    -1.5740 h1         1 MFX       0.043200
     34 H04A         2.9750    -0.6600    -2.3870 h1         1 MFX       0.043200
     35 H05          5.0350    -0.2940     2.5930 hc         1 MFX       0.037700
     36 H05A         6.2890    -0.7720     1.4730 hc         1 MFX       0.037700
     37 H06         -1.2840     2.5020     1.7150 h1         1 MFX       0.092700
     38 H07          4.7230     1.8480     1.4160 hc         1 MFX       0.045700
     39 H07A         6.4410     1.6280     1.7010 hc         1 MFX       0.045700
     40 HN02         4.7840     0.9690    -2.0510 hn         1 MFX       0.410000
     41 H08         -0.7650     4.0820    -0.1520 hc         1 MFX       0.076950
     42 H08A        -1.6580     3.0070    -1.3190 hc         1 MFX       0.076950
     43 H09         -3.7490     3.2620    -0.0120 hc         1 MFX       0.076950
     44 H09A        -2.9010     4.2970     1.2180 hc         1 MFX       0.076950
     45 H10          6.7710     0.8240    -0.5970 h1         1 MFX       0.022700
     46 H10A         5.9510     2.3840    -0.6330 h1         1 MFX       0.022700
     47 H16         -4.1100     1.4350     1.2030 h4         1 MFX       0.226000
     48 H17         -1.5570    -2.8980    -1.6750 ha         1 MFX       0.151000
     49 H            1.5200     3.0880     0.1770 h1         1 MFX       0.036700
     50 HA           2.3400     1.7160    -0.5960 h1         1 MFX       0.036700
     51 HB           0.8300     2.3590    -1.2840 h1         1 MFX       0.036700
     52 O01          0.5980     1.3160     0.5080 os         1 MFX      -0.357100
@<TRIPOS>BOND
     1     1    22 1   
     2     2    26 2   
     3     3    27 1   
     4     4    27 1   
     5     5    10 1   
     6     5    11 1   
     7     5    18 1   
     8     6     9 1   
     9     6    17 1   
    10     6    40 1   
    11     7    13 1   
    12     7    19 1   
    13     7    23 1   
    14     8     9 1   
    15     8    10 1   
    16     8    12 1   
    17     8    29 1   
    18     9    11 1   
    19     9    30 1   
    20    10    31 1   
    21    10    32 1   
    22    11    33 1   
    23    11    34 1   
    24    12    14 1   
    25    12    35 1   
    26    12    36 1   
    27    13    15 1   
    28    13    16 1   
    29    13    37 1   
    30    14    17 1   
    31    14    38 1   
    32    14    39 1   
    33    15    16 1   
    34    15    41 1   
    35    15    42 1   
    36    16    43 1   
    37    16    44 1   
    38    17    45 1   
    39    17    46 1   
    40    18    20 ar  
    41    18    22 ar  
    42    19    20 ar  
    43    19    21 ar  
    44    20    52 1   
    45    21    24 ar  
    46    21    26 1   
    47    22    24 ar  
    48    23    25 2   
    49    23    47 1   
    50    24    48 1   
    51    25    26 1   
    52    25    27 1   
    53    28    49 1   
    54    28    50 1   
    55    28    51 1   
    56    28    52 1   
@<TRIPOS>SUBSTRUCTURE
     1 MFX         1 TEMP              0 ****  ****    0 ROOT
