@<TRIPOS>MOLECULE
MFY
   26    26     1     0     0
SMALL
No Charge or Current Charge


@<TRIPOS>ATOM
      1 CAG         -2.5760     1.2240    -0.5660 ca         1 MFY      -0.091500
      2 CAE         -3.8970     1.1900    -0.0840 ca         1 MFY      -0.113000
      3 CAM         -4.5080    -0.0410     0.2040 ca         1 MFY       0.112000
      4 Cl          -6.1600    -0.0820     0.8070 cl         1 MFY      -0.231000
      5 CAF         -3.8020    -1.2390     0.0120 ca         1 MFY      -0.113000
      6 CAH         -2.4810    -1.2070    -0.4700 ca         1 MFY      -0.091500
      7 CAN         -1.8610     0.0250    -0.7620 ca         1 MFY      -0.068300
      8 CAK         -0.4310     0.0580    -1.2880 c3         1 MFY       0.200100
      9 NAL          0.5330    -0.0290    -0.1770 n7         1 MFY      -0.865400
     10 CAI          1.9460     0.0320    -0.5720 c3         1 MFY       0.194800
     11 CAJ          2.7890    -0.0380     0.6980 c3         1 MFY      -0.359400
     12 SAO          4.5510     0.0150     0.3310 s6         1 MFY       1.322600
     13 OAC          4.7320     1.3030    -0.3540 o          1 MFY      -0.697200
     14 OAB          5.1790    -0.0610     1.6580 o          1 MFY      -0.697200
     15 OAA          4.7750    -1.1650    -0.5160 o          1 MFY      -0.697200
     16 H1          -2.1080     2.1820    -0.7870 ha         1 MFY       0.127500
     17 H2          -4.4460     2.1170     0.0660 ha         1 MFY       0.121000
     18 H3          -4.2770    -2.1910     0.2360 ha         1 MFY       0.121000
     19 H4          -1.9360    -2.1370    -0.6150 ha         1 MFY       0.127500
     20 H5          -0.2880    -0.7780    -1.9870 h1         1 MFY       0.035700
     21 H6          -0.2790     0.9860    -1.8560 h1         1 MFY       0.035700
     22 H7           0.3500     0.7540     0.4580 hn         1 MFY       0.403000
     23 H9           2.1970    -0.8080    -1.2370 h1         1 MFY       0.041700
     24 H10          2.1570     0.9680    -1.1100 h1         1 MFY       0.041700
     25 H11          2.5810     0.8130     1.3550 h1         1 MFY       0.070700
     26 H12          2.6100    -0.9750     1.2340 h1         1 MFY       0.070700
@<TRIPOS>BOND
     1     1     2 ar  
     2     1     7 ar  
     3     1    16 1   
     4     2     3 ar  
     5     2    17 1   
     6     3     4 1   
     7     3     5 ar  
     8     5     6 ar  
     9     5    18 1   
    10     6     7 ar  
    11     6    19 1   
    12     7     8 1   
    13     8     9 1   
    14     8    20 1   
    15     8    21 1   
    16     9    10 1   
    17     9    22 1   
    18    10    11 1   
    19    10    23 1   
    20    10    24 1   
    21    11    12 1   
    22    11    25 1   
    23    11    26 1   
    24    12    13 1   
    25    12    14 1   
    26    12    15 1   
@<TRIPOS>SUBSTRUCTURE
     1 MFY         1 TEMP              0 ****  ****    0 ROOT
