@<TRIPOS>MOLECULE
MFY
   26    26     1     0     0
SMALL
bcc


@<TRIPOS>ATOM
      1 CAG         -2.8270     1.2020    -0.9220 ca         1 MFY      -0.109500
      2 CAE         -4.1520     0.9930    -0.5600 ca         1 MFY      -0.131000
      3 CAM         -4.4980    -0.1960     0.0600 ca         1 MFY       0.020400
      4 CL          -6.1480    -0.4720     0.5200 cl         1 MFY      -0.139400
      5 CAF         -3.5450    -1.1710     0.3210 ca         1 MFY      -0.131000
      6 CAH         -2.2290    -0.9430    -0.0490 ca         1 MFY      -0.109500
      7 CAN         -1.8520     0.2410    -0.6800 ca         1 MFY      -0.068300
      8 CAK         -0.4240     0.4580    -1.1030 c3         1 MFY       0.200100
      9 NAL          0.5010     0.1030    -0.0450 n7         1 MFY      -0.810200
     10 CAI          1.8870     0.1760    -0.4690 c3         1 MFY       0.194800
     11 CAJ          2.8050    -0.2250     0.6720 c3         1 MFY      -0.248600
     12 SAO          4.5350    -0.3130     0.1800 s6         1 MFY       1.211800
     13 OAC          4.8890     1.0370    -0.3050 o          1 MFY      -0.697200
     14 OAB          5.2680    -0.6960     1.4030 o          1 MFY      -0.697200
     15 OAA          4.5960    -1.3400    -0.8790 o          1 MFY      -0.697200
     16 H1          -2.5540     2.1350    -1.4010 ha         1 MFY       0.145500
     17 H2          -4.8990     1.7500    -0.7550 ha         1 MFY       0.139000
     18 H3          -3.8250    -2.0960     0.8060 ha         1 MFY       0.139000
     19 H4          -1.4820    -1.6970     0.1600 ha         1 MFY       0.145500
     20 H5          -0.2070    -0.1830    -1.9640 h1         1 MFY       0.035700
     21 H6          -0.3020     1.4920    -1.4590 h1         1 MFY       0.035700
     22 H7           0.3560     0.7310     0.7380 hn         1 MFY       0.347800
     23 H9           2.0220    -0.5200    -1.3020 h1         1 MFY       0.041700
     24 H10          2.1700     1.1720    -0.8380 h1         1 MFY       0.041700
     25 H11          2.7400     0.4880     1.4970 h1         1 MFY       0.070700
     26 H12          2.5260    -1.2090     1.0530 h1         1 MFY       0.070700
@<TRIPOS>BOND
     1     1     2 ar  
     2     1     7 ar  
     3     1    16 1   
     4     2     3 ar  
     5     2    17 1   
     6     3     4 1   
     7     3     5 ar  
     8     5     6 ar  
     9     5    18 1   
    10     6     7 ar  
    11     6    19 1   
    12     7     8 1   
    13     8     9 1   
    14     8    20 1   
    15     8    21 1   
    16     9    10 1   
    17     9    22 1   
    18    10    11 1   
    19    10    23 1   
    20    10    24 1   
    21    11    12 1   
    22    11    25 1   
    23    11    26 1   
    24    12    13 1   
    25    12    14 1   
    26    12    15 1   
@<TRIPOS>SUBSTRUCTURE
     1 MFY         1 TEMP              0 ****  ****    0 ROOT
