@<TRIPOS>MOLECULE
MFZ
   22    23     1     0     0
SMALL
bcc


@<TRIPOS>ATOM
      1 O1           5.2120     0.2180    -0.0250 oh         1 MFZ      -0.581800
      2 C2           4.7250    -1.1040    -0.0350 c3         1 MFZ       0.233500
      3 C3           3.2670    -1.0780    -0.0130 c1         1 MFZ      -0.134100
      4 C4           2.0630    -1.0760    -0.0000 cg         1 MFZ      -0.097300
      5 C5           0.6480    -1.1150     0.0150 cc         1 MFZ       0.014100
      6 C6          -0.1070    -2.2640     0.0430 cd         1 MFZ      -0.086100
      7 N7          -1.4250    -1.9510     0.0470 na         1 MFZ      -0.150400
      8 C9          -1.5720    -0.5990     0.0230 ca         1 MFZ      -0.045200
      9 C10         -2.7260     0.1790     0.0150 ca         1 MFZ       0.006400
     10 CL1         -4.2700    -0.5920     0.0410 cl         1 MFZ      -0.107400
     11 C12         -2.6000     1.5490    -0.0130 ca         1 MFZ      -0.092000
     12 C13         -1.3310     2.1430    -0.0330 ca         1 MFZ      -0.147000
     13 C14         -0.1890     1.3700    -0.0250 ca         1 MFZ       0.080400
     14 CL2          1.3620     2.1300    -0.0490 cl         1 MFZ      -0.078400
     15 C16         -0.2850    -0.0230     0.0020 ca         1 MFZ      -0.067800
     16 HO1          6.1730     0.1680    -0.0280 ho         1 MFZ       0.404000
     17 H2           5.0540    -1.6550    -0.9250 h1         1 MFZ       0.031700
     18 H2A          5.0790    -1.6780     0.8320 h1         1 MFZ       0.031700
     19 H6           0.2200    -3.2900     0.0590 h4         1 MFZ       0.173000
     20 HN7         -2.1750    -2.6230     0.0650 hn         1 MFZ       0.313700
     21 H12         -3.4790     2.1770    -0.0210 ha         1 MFZ       0.150000
     22 H13         -1.2560     3.2210    -0.0540 ha         1 MFZ       0.151000
@<TRIPOS>BOND
     1     1     2 1   
     2     1    16 1   
     3     2     3 1   
     4     2    17 1   
     5     2    18 1   
     6     3     4 3   
     7     4     5 1   
     8     5     6 2   
     9     5    15 1   
    10     6     7 1   
    11     6    19 1   
    12     7     8 1   
    13     7    20 1   
    14     8     9 ar  
    15     8    15 ar  
    16     9    10 1   
    17     9    11 ar  
    18    11    12 ar  
    19    11    21 1   
    20    12    13 ar  
    21    12    22 1   
    22    13    14 1   
    23    13    15 ar  
@<TRIPOS>SUBSTRUCTURE
     1 MFZ         1 TEMP              0 ****  ****    0 ROOT
