@<TRIPOS>MOLECULE
MFZ
   22    23     1     0     0
SMALL
No Charge or Current Charge


@<TRIPOS>ATOM
      1 O1           5.3980    -1.5220     0.8120 oh         1 MFZ      -0.644000
      2 C2           4.7450    -0.7410    -0.1950 c3         1 MFZ       0.256700
      3 C3           3.2890    -0.8570    -0.0650 c1         1 MFZ      -0.134100
      4 C4           2.0780    -0.9170     0.0210 cg         1 MFZ      -0.097300
      5 C5           0.6650    -1.0200     0.1350 cc         1 MFZ       0.014100
      6 C6          -0.0100    -2.1870     0.4710 cd         1 MFZ      -0.136100
      7 N7          -1.4030    -1.9350     0.4950 na         1 MFZ      -0.200700
      8 C9          -1.5560    -0.5970     0.1690 ca         1 MFZ      -0.045200
      9 C10         -2.7560     0.1240     0.0640 ca         1 MFZ       0.098000
     10 Cl1         -4.3100    -0.6510     0.3570 cl         1 MFZ      -0.199000
     11 C12         -2.6930     1.4880    -0.2820 ca         1 MFZ      -0.074000
     12 C13         -1.4410     2.1040    -0.5160 ca         1 MFZ      -0.129000
     13 C14         -0.2460     1.3620    -0.4060 ca         1 MFZ       0.172000
     14 Cl2          1.2930     2.1670    -0.7060 cl         1 MFZ      -0.170000
     15 C16         -0.3400    -0.0020    -0.0580 ca         1 MFZ      -0.067800
     16 HO1          6.3630    -1.4020     0.6730 ho         1 MFZ       0.443000
     17 H2           5.0240     0.3180    -0.1020 h1         1 MFZ       0.031700
     18 H2A          5.0390    -1.0810    -1.1970 h1         1 MFZ       0.031700
     19 H6           0.3990    -3.1680     0.6920 h4         1 MFZ       0.223000
     20 HN7         -2.1430    -2.5990     0.7090 hn         1 MFZ       0.364000
     21 H12         -3.6090     2.0670    -0.3690 ha         1 MFZ       0.132000
     22 H13         -1.3980     3.1560    -0.7830 ha         1 MFZ       0.133000
@<TRIPOS>BOND
     1     1     2 1   
     2     1    16 1   
     3     2     3 1   
     4     2    17 1   
     5     2    18 1   
     6     3     4 3   
     7     4     5 1   
     8     5     6 2   
     9     5    15 1   
    10     6     7 1   
    11     6    19 1   
    12     7     8 1   
    13     7    20 1   
    14     8     9 ar  
    15     8    15 ar  
    16     9    10 1   
    17     9    11 ar  
    18    11    12 ar  
    19    11    21 1   
    20    12    13 ar  
    21    12    22 1   
    22    13    14 1   
    23    13    15 ar  
@<TRIPOS>SUBSTRUCTURE
     1 MFZ         1 TEMP              0 ****  ****    0 ROOT
