@<TRIPOS>MOLECULE
MG0
   50    52     1     0     0
SMALL
abcg2


@<TRIPOS>ATOM
      1 C18         -4.5400    -1.0970     1.2500 ca         1 MG0       0.063000
      2 C17         -4.1540    -2.4070     1.1820 ca         1 MG0      -0.265000
      3 C16         -4.0110    -3.0090    -0.0890 ca         1 MG0       0.670900
      4 N4          -3.6520    -4.2960    -0.2050 nv         1 MG0      -1.066900
      5 N3          -4.2530    -2.3360    -1.2200 nb         1 MG0      -0.774000
      6 C15         -4.6250    -1.0710    -1.1390 ca         1 MG0       0.494900
      7 C14         -4.7750    -0.3950     0.0620 ca         1 MG0      -0.450500
      8 S1          -5.2080     1.3050     0.0900 sy         1 MG0       1.184600
      9 O2          -5.8930     1.6080    -1.1570 o          1 MG0      -0.537000
     10 O3          -5.8700     1.5600     1.3600 o          1 MG0      -0.537000
     11 N2          -3.8340     2.2170     0.0970 n3         1 MG0      -0.734500
     12 C11         -2.9780     2.2290     1.2760 c6         1 MG0       0.195800
     13 C10         -1.7980     1.2770     1.1630 c6         1 MG0       0.168300
     14 C12         -3.0730     2.4170    -1.1300 c6         1 MG0       0.195800
     15 C13         -1.8910     1.4720    -1.2490 c6         1 MG0       0.168300
     16 N1          -1.0540     1.5270    -0.0570 nh         1 MG0      -0.784400
     17 C5           0.2400     1.0370    -0.1450 ca         1 MG0       0.330000
     18 C4           0.8230     0.2730     0.8740 ca         1 MG0      -0.171500
     19 C3           2.1340    -0.1650     0.7930 ca         1 MG0      -0.039000
     20 C6           1.0450     1.3230    -1.2580 ca         1 MG0      -0.171500
     21 C1           2.3490     0.8760    -1.3350 ca         1 MG0      -0.039000
     22 C2           2.9230     0.1120    -0.3190 ca         1 MG0      -0.197300
     23 C7           4.3750    -0.3210    -0.4540 c3         1 MG0       0.121300
     24 C8           5.2680     0.7110     0.2700 c3         1 MG0       0.302500
     25 F6           6.5650     0.4040     0.2010 f          1 MG0      -0.099167
     26 F4           5.1150     1.9100    -0.2880 f          1 MG0      -0.099167
     27 F5           4.9490     0.8230     1.5590 f          1 MG0      -0.099167
     28 C9           4.6170    -1.7580     0.0840 c3         1 MG0       0.302500
     29 F3           5.8240    -2.2060    -0.2530 f          1 MG0      -0.099167
     30 F1           4.5220    -1.8620     1.4120 f          1 MG0      -0.099167
     31 F2           3.7230    -2.5910    -0.4510 f          1 MG0      -0.099167
     32 O1           4.8300    -0.3020    -1.7690 oh         1 MG0      -0.622000
     33 H1          -4.6620    -0.6240     2.2160 ha         1 MG0       0.135000
     34 H2          -3.9700    -2.9790     2.0820 ha         1 MG0       0.126000
     35 H3          -3.3370    -4.8170     0.5940 hn         1 MG0       0.499500
     36 H4          -3.4470    -4.6740    -1.1140 hn         1 MG0       0.499500
     37 H5          -4.8170    -0.5720    -2.0830 h4         1 MG0       0.037100
     38 H6          -2.6050     3.2500     1.3880 h1         1 MG0       0.079950
     39 H7          -3.5520     2.0020     2.1720 h1         1 MG0       0.079950
     40 H8          -1.1600     1.4650     2.0260 h1         1 MG0       0.049950
     41 H9          -2.1330     0.2330     1.2280 h1         1 MG0       0.049950
     42 H10         -3.7170     2.3180    -2.0010 h1         1 MG0       0.079950
     43 H11         -2.7120     3.4490    -1.1140 h1         1 MG0       0.079950
     44 H12         -2.2350     0.4450    -1.4310 h1         1 MG0       0.049950
     45 H13         -1.3250     1.7770    -2.1260 h1         1 MG0       0.049950
     46 H14          0.2590    -0.0070     1.7520 ha         1 MG0       0.120500
     47 H15          2.5060    -0.7410     1.6270 ha         1 MG0       0.126000
     48 H16          0.6680     1.9270    -2.0710 ha         1 MG0       0.120500
     49 H17          2.9180     1.1580    -2.2110 ha         1 MG0       0.126000
     50 H18          4.1600    -0.6730    -2.3580 ho         1 MG0       0.478000
@<TRIPOS>BOND
     1     1     2 ar  
     2     1     7 ar  
     3     1    33 1   
     4     2     3 ar  
     5     2    34 1   
     6     3     4 1   
     7     3     5 ar  
     8     4    35 1   
     9     4    36 1   
    10     5     6 ar  
    11     6     7 ar  
    12     6    37 1   
    13     7     8 1   
    14     8     9 2   
    15     8    10 2   
    16     8    11 1   
    17    11    12 1   
    18    11    14 1   
    19    12    13 1   
    20    12    38 1   
    21    12    39 1   
    22    13    16 1   
    23    13    40 1   
    24    13    41 1   
    25    14    15 1   
    26    14    42 1   
    27    14    43 1   
    28    15    16 1   
    29    15    44 1   
    30    15    45 1   
    31    16    17 1   
    32    17    18 ar  
    33    17    20 ar  
    34    18    19 ar  
    35    18    46 1   
    36    19    22 ar  
    37    19    47 1   
    38    20    21 ar  
    39    20    48 1   
    40    21    22 ar  
    41    21    49 1   
    42    22    23 1   
    43    23    24 1   
    44    23    28 1   
    45    23    32 1   
    46    24    25 1   
    47    24    26 1   
    48    24    27 1   
    49    28    29 1   
    50    28    30 1   
    51    28    31 1   
    52    32    50 1   
@<TRIPOS>SUBSTRUCTURE
     1 MG0         1 TEMP              0 ****  ****    0 ROOT
