@<TRIPOS>MOLECULE
MG0
   50    52     1     0     0
SMALL
No Charge or Current Charge


@<TRIPOS>ATOM
      1 C18         -6.2240    -0.4760     1.1090 ca         1 MG0       0.063000
      2 C17         -6.7940    -1.4230     1.9660 ca         1 MG0      -0.265000
      3 C16         -6.3790    -2.7460     1.8470 ca         1 MG0       0.670900
      4 N4          -6.8390    -3.7330     2.6090 nv         1 MG0      -1.066900
      5 N3          -5.4770    -3.1960     0.9920 nb         1 MG0      -0.774000
      6 C15         -4.9210    -2.2900     0.1590 ca         1 MG0       0.494900
      7 C14         -5.2670    -0.9380     0.1940 ca         1 MG0      -0.450500
      8 S1          -4.4780     0.1690    -0.9360 sy         1 MG0       1.184600
      9 O2          -3.5510    -0.5710    -1.7960 o          1 MG0      -0.537000
     10 O3          -5.5270     1.0350    -1.4810 o          1 MG0      -0.537000
     11 N2          -3.5700     1.1550     0.1130 n3         1 MG0      -0.734500
     12 C11         -2.7170     0.4760     1.1340 c6         1 MG0       0.195800
     13 C10         -1.3660    -0.0520     0.5510 c6         1 MG0       0.168300
     14 C12         -2.8040     2.2580    -0.5350 c6         1 MG0       0.195800
     15 C13         -1.4450     1.7890    -1.1540 c6         1 MG0       0.168300
     16 N1          -0.6040     1.0080    -0.1870 nh         1 MG0      -0.784400
     17 C5           0.7910     0.8940    -0.3990 ca         1 MG0       0.330000
     18 C4           1.4260    -0.3580    -0.4560 ca         1 MG0      -0.171500
     19 C3           2.8120    -0.4570    -0.6650 ca         1 MG0      -0.039000
     20 C6           1.5750     2.0480    -0.5440 ca         1 MG0      -0.171500
     21 C1           2.9610     1.9590    -0.7520 ca         1 MG0      -0.039000
     22 C2           3.6100     0.7020    -0.8300 ca         1 MG0      -0.197300
     23 C7           5.1530     0.6420    -1.0430 c3         1 MG0       0.121300
     24 C8           5.8810     0.9600     0.3250 c3         1 MG0       0.302500
     25 F6           7.2300     0.9080     0.2080 f          1 MG0      -0.099167
     26 F4           5.5720     2.1990     0.7770 f          1 MG0      -0.099167
     27 F5           5.5220     0.0850     1.2940 f          1 MG0      -0.099167
     28 C9           5.6730    -0.7250    -1.6630 c3         1 MG0       0.302500
     29 F3           6.9560    -0.6240    -2.0870 f          1 MG0      -0.099167
     30 F1           5.6330    -1.7500    -0.7790 f          1 MG0      -0.099167
     31 F2           4.9330    -1.0810    -2.7400 f          1 MG0      -0.099167
     32 O1           5.4730     1.6870    -1.9950 oh         1 MG0      -0.622000
     33 H1          -6.5110     0.5750     1.1590 ha         1 MG0       0.135000
     34 H2          -7.5400    -1.1360     2.7000 ha         1 MG0       0.126000
     35 H3          -7.2040    -3.4710     3.5170 hn         1 MG0       0.499500
     36 H4          -6.2740    -4.5730     2.5820 hn         1 MG0       0.499500
     37 H5          -4.1800    -2.6770    -0.5400 h4         1 MG0       0.037100
     38 H6          -2.4680     1.1950     1.9280 h1         1 MG0       0.079950
     39 H7          -3.2450    -0.3470     1.6340 h1         1 MG0       0.079950
     40 H8          -0.7630    -0.4340     1.3870 h1         1 MG0       0.049950
     41 H9          -1.5680    -0.9020    -0.1160 h1         1 MG0       0.049950
     42 H10         -3.4030     2.7590    -1.3100 h1         1 MG0       0.079950
     43 H11         -2.5730     3.0280     0.2150 h1         1 MG0       0.079950
     44 H12         -1.6460     1.1760    -2.0450 h1         1 MG0       0.049950
     45 H13         -0.9080     2.6810    -1.5030 h1         1 MG0       0.049950
     46 H14          0.8470    -1.2690    -0.3490 ha         1 MG0       0.120500
     47 H15          3.2420    -1.4540    -0.6920 ha         1 MG0       0.126000
     48 H16          1.1100     3.0270    -0.4790 ha         1 MG0       0.120500
     49 H17          3.5290     2.8820    -0.8440 ha         1 MG0       0.126000
     50 H18          4.8530     1.5860    -2.7500 ho         1 MG0       0.478000
@<TRIPOS>BOND
     1     1     2 ar  
     2     1     7 ar  
     3     1    33 1   
     4     2     3 ar  
     5     2    34 1   
     6     3     4 1   
     7     3     5 ar  
     8     4    35 1   
     9     4    36 1   
    10     5     6 ar  
    11     6     7 ar  
    12     6    37 1   
    13     7     8 1   
    14     8     9 2   
    15     8    10 2   
    16     8    11 1   
    17    11    12 1   
    18    11    14 1   
    19    12    13 1   
    20    12    38 1   
    21    12    39 1   
    22    13    16 1   
    23    13    40 1   
    24    13    41 1   
    25    14    15 1   
    26    14    42 1   
    27    14    43 1   
    28    15    16 1   
    29    15    44 1   
    30    15    45 1   
    31    16    17 1   
    32    17    18 ar  
    33    17    20 ar  
    34    18    19 ar  
    35    18    46 1   
    36    19    22 ar  
    37    19    47 1   
    38    20    21 ar  
    39    20    48 1   
    40    21    22 ar  
    41    21    49 1   
    42    22    23 1   
    43    23    24 1   
    44    23    28 1   
    45    23    32 1   
    46    24    25 1   
    47    24    26 1   
    48    24    27 1   
    49    28    29 1   
    50    28    30 1   
    51    28    31 1   
    52    32    50 1   
@<TRIPOS>SUBSTRUCTURE
     1 MG0         1 TEMP              0 ****  ****    0 ROOT
