@<TRIPOS>MOLECULE
MG2
   44    46     1     0     0
SMALL
abcg2


@<TRIPOS>ATOM
      1 F22         -3.2790     1.6020     2.7060 f          1 MG2      -0.103333
      2 C5          -2.7920     1.4050     1.4760 c3         1 MG2       0.356300
      3 F20         -3.1470     2.4690     0.7540 f          1 MG2      -0.103333
      4 F21         -1.4610     1.4160     1.6010 f          1 MG2      -0.103333
      5 C3          -3.3110     0.1200     0.8810 ca         1 MG2      -0.104300
      6 C23         -4.4070    -0.4690     1.4990 ca         1 MG2      -0.086000
      7 C25         -4.9690    -1.6400     1.0080 ca         1 MG2      -0.067000
      8 C26         -4.4420    -2.2390    -0.1190 ca         1 MG2      -0.099000
      9 C24         -3.3540    -1.6610    -0.7570 ca         1 MG2      -0.038000
     10 C4          -2.7860    -0.4910    -0.2690 ca         1 MG2      -0.200500
     11 S1          -1.3840     0.1050    -1.2250 sy         1 MG2       1.043500
     12 O14         -1.4830    -0.5160    -2.5440 o          1 MG2      -0.508500
     13 O15         -1.3210     1.5600    -1.1670 o          1 MG2      -0.508500
     14 C2           0.0430    -0.5920    -0.3990 c5         1 MG2      -0.329700
     15 C16          0.0830    -2.1240    -0.3680 c5         1 MG2       0.180800
     16 N9           1.4770    -2.4280    -0.1070 n7         1 MG2      -0.827400
     17 C10          2.2760    -1.4130    -0.7760 c5         1 MG2       0.080500
     18 C8           1.3260    -0.2310    -1.1460 c5         1 MG2      -0.076400
     19 C7           3.3850    -0.8990     0.1270 c          1 MG2       0.602100
     20 O19          3.3110    -0.9560     1.3420 o          1 MG2      -0.590100
     21 N11          4.4260    -0.3570    -0.5340 ns         1 MG2      -0.453900
     22 C6           5.3850     0.4610     0.1190 cx         1 MG2      -0.025900
     23 C18          6.8230     0.3160    -0.3160 cx         1 MG2      -0.104900
     24 C17          6.4040    -0.1990     1.0120 cx         1 MG2      -0.104900
     25 C12          4.9300     1.8170     0.4920 c2         1 MG2       0.440200
     26 N13          3.7600     2.2210     0.2410 n2         1 MG2      -0.746100
     27 H23         -4.8700    -3.1500    -0.5130 ha         1 MG2       0.128000
     28 H24         -2.9570    -2.1320    -1.6440 ha         1 MG2       0.149000
     29 H25          0.0510    -0.1980     0.6180 h1         1 MG2       0.120700
     30 H26         -0.5560    -2.5580     0.3990 h1         1 MG2       0.065700
     31 HA          -4.8440    -0.0220     2.3790 ha         1 MG2       0.137000
     32 HB          -5.8190    -2.0740     1.5150 ha         1 MG2       0.127000
     33 H16         -0.2180    -2.5310    -1.3360 h1         1 MG2       0.065700
     34 H81C         1.1660    -0.2160    -2.2250 hc         1 MG2       0.081200
     35 H82C         1.7250     0.7400    -0.8520 hc         1 MG2       0.081200
     36 H9           1.6470    -2.3650     0.8910 hn         1 MG2       0.437000
     37 H10          2.7140    -1.8130    -1.6950 h1         1 MG2       0.079700
     38 H11          4.3560    -0.2730    -1.5370 hn         1 MG2       0.318500
     39 H181         7.0140    -0.3970    -1.1080 hc         1 MG2       0.083450
     40 H182         7.4210     1.2170    -0.3630 hc         1 MG2       0.083450
     41 H171         6.7110     0.3390     1.9000 hc         1 MG2       0.083450
     42 H172         6.3100    -1.2680     1.1430 hc         1 MG2       0.083450
     43 H13          3.6350     3.1750     0.5680 hn         1 MG2       0.385400
     44 H12          5.6870     2.4290     0.9930 h4         1 MG2      -0.033200
@<TRIPOS>BOND
     1     1     2 1   
     2     2     3 1   
     3     2     4 1   
     4     2     5 1   
     5     5     6 ar  
     6     5    10 ar  
     7     6     7 ar  
     8     6    31 1   
     9     7     8 ar  
    10     7    32 1   
    11     8     9 ar  
    12     8    27 1   
    13     9    10 ar  
    14     9    28 1   
    15    10    11 1   
    16    11    12 2   
    17    11    13 2   
    18    11    14 1   
    19    14    15 1   
    20    14    18 1   
    21    14    29 1   
    22    15    16 1   
    23    15    30 1   
    24    15    33 1   
    25    16    17 1   
    26    16    36 1   
    27    17    18 1   
    28    17    19 1   
    29    17    37 1   
    30    18    34 1   
    31    18    35 1   
    32    19    20 2   
    33    19    21 1   
    34    21    22 1   
    35    21    38 1   
    36    22    23 1   
    37    22    24 1   
    38    22    25 1   
    39    23    24 1   
    40    23    39 1   
    41    23    40 1   
    42    24    41 1   
    43    24    42 1   
    44    25    26 2   
    45    25    44 1   
    46    26    43 1   
@<TRIPOS>SUBSTRUCTURE
     1 MG2         1 TEMP              0 ****  ****    0 ROOT
