@<TRIPOS>MOLECULE
MG2
   44    46     1     0     0
SMALL
No Charge or Current Charge


@<TRIPOS>ATOM
      1 F22         -3.9330     1.3460     2.7790 f          1 MG2      -0.103333
      2 C5          -3.3440     1.2070     1.5680 c3         1 MG2       0.356300
      3 F20         -3.7310     2.2810     0.8440 f          1 MG2      -0.103333
      4 F21         -2.0200     1.3250     1.8020 f          1 MG2      -0.103333
      5 C3          -3.7190    -0.1250     0.8680 ca         1 MG2      -0.104300
      6 C23         -4.8080    -0.8630     1.4010 ca         1 MG2      -0.086000
      7 C25         -5.2170    -2.0810     0.8420 ca         1 MG2      -0.067000
      8 C26         -4.5490    -2.5970    -0.2710 ca         1 MG2      -0.099000
      9 C24         -3.4780    -1.8900    -0.8310 ca         1 MG2      -0.038000
     10 C4          -3.0480    -0.6510    -0.2930 ca         1 MG2      -0.200500
     11 S1          -1.6350     0.1430    -1.1500 sy         1 MG2       1.043500
     12 O14         -1.5300    -0.4550    -2.4890 o          1 MG2      -0.508500
     13 O15         -1.7450     1.6010    -1.0180 o          1 MG2      -0.508500
     14 C2          -0.1070    -0.3610    -0.2230 c5         1 MG2      -0.329700
     15 C16          0.0620    -1.8840    -0.2780 c5         1 MG2       0.180800
     16 N9           1.4250    -1.9940     0.2690 n7         1 MG2      -0.827400
     17 C10          2.2320    -0.9690    -0.4870 c5         1 MG2       0.080500
     18 C8           1.1990     0.1230    -0.9240 c5         1 MG2      -0.076400
     19 C7           3.3880    -0.2990     0.3510 c          1 MG2       0.602100
     20 O19          3.3430     0.0290     1.5320 o          1 MG2      -0.590100
     21 N11          4.5230    -0.1660    -0.4300 ns         1 MG2      -0.453900
     22 C6           5.7690     0.4140     0.0270 cx         1 MG2      -0.025900
     23 C18          7.0410    -0.1220    -0.5960 cx         1 MG2      -0.104900
     24 C17          6.6910    -0.4810     0.8270 cx         1 MG2      -0.104900
     25 C12          5.6670     1.8760     0.3730 c2         1 MG2       0.440200
     26 N13          5.5680     2.7810    -0.5360 n2         1 MG2      -0.746100
     27 H23         -4.8630    -3.5440    -0.7040 ha         1 MG2       0.128000
     28 H24         -2.9840    -2.3220    -1.6990 ha         1 MG2       0.149000
     29 H25         -0.1990     0.0070     0.8040 h1         1 MG2       0.120700
     30 H26         -0.6770    -2.4200     0.3370 h1         1 MG2       0.065700
     31 HA          -5.3600    -0.4990     2.2640 ha         1 MG2       0.137000
     32 HB          -6.0540    -2.6260     1.2750 ha         1 MG2       0.127000
     33 H16          0.0130    -2.2800    -1.3040 h1         1 MG2       0.065700
     34 H81C         1.1080     0.1360    -2.0170 hc         1 MG2       0.081200
     35 H82C         1.4810     1.1390    -0.6190 hc         1 MG2       0.081200
     36 H9           1.3850    -1.6960     1.2540 hn         1 MG2       0.437000
     37 H10          2.6740    -1.4340    -1.3800 h1         1 MG2       0.079700
     38 H11          4.4450    -0.4670    -1.3940 hn         1 MG2       0.318500
     39 H181         6.9560    -0.9020    -1.3490 hc         1 MG2       0.083450
     40 H182         7.8620     0.5720    -0.7550 hc         1 MG2       0.083450
     41 H171         7.2800    -0.0270     1.6220 hc         1 MG2       0.083450
     42 H172         6.3670    -1.4990     1.0290 hc         1 MG2       0.083450
     43 H13          5.5100     3.7040    -0.0810 hn         1 MG2       0.385400
     44 H12          5.6800     2.1510     1.4240 h4         1 MG2      -0.033200
@<TRIPOS>BOND
     1     1     2 1   
     2     2     3 1   
     3     2     4 1   
     4     2     5 1   
     5     5     6 ar  
     6     5    10 ar  
     7     6     7 ar  
     8     6    31 1   
     9     7     8 ar  
    10     7    32 1   
    11     8     9 ar  
    12     8    27 1   
    13     9    10 ar  
    14     9    28 1   
    15    10    11 1   
    16    11    12 2   
    17    11    13 2   
    18    11    14 1   
    19    14    15 1   
    20    14    18 1   
    21    14    29 1   
    22    15    16 1   
    23    15    30 1   
    24    15    33 1   
    25    16    17 1   
    26    16    36 1   
    27    17    18 1   
    28    17    19 1   
    29    17    37 1   
    30    18    34 1   
    31    18    35 1   
    32    19    20 2   
    33    19    21 1   
    34    21    22 1   
    35    21    38 1   
    36    22    23 1   
    37    22    24 1   
    38    22    25 1   
    39    23    24 1   
    40    23    39 1   
    41    23    40 1   
    42    24    41 1   
    43    24    42 1   
    44    25    26 2   
    45    25    44 1   
    46    26    43 1   
@<TRIPOS>SUBSTRUCTURE
     1 MG2         1 TEMP              0 ****  ****    0 ROOT
