@<TRIPOS>MOLECULE
MG3
   94    98     1     0     0
SMALL
abcg2


@<TRIPOS>ATOM
      1 C01        117.1340    83.8940   110.7130 c3         1 MG3       0.085300
      2 C03        114.9650    84.4560   109.8760 c          1 MG3       0.597100
      3 C04        113.7450    85.3750   109.7200 c3         1 MG3       0.048700
      4 C05        112.5310    84.7700   110.4380 c3         1 MG3      -0.090400
      5 C06        111.2000    85.4380   110.0760 c3         1 MG3      -0.076400
      6 C07        110.0650    85.0830   111.0380 c3         1 MG3      -0.075400
      7 C08        110.0940    85.9120   112.3150 c3         1 MG3       0.146800
      8 C11        114.3310    86.2120   107.5000 c          1 MG3       0.615100
      9 C12        113.7510    86.6920   106.1680 c3         1 MG3       0.097500
     10 C13        114.8320    86.8260   105.0910 c3         1 MG3      -0.091400
     11 C14        115.4970    85.5050   104.6980 c3         1 MG3      -0.078400
     12 C15        114.5480    84.4890   104.0720 c3         1 MG3       0.149800
     13 C18        113.7240    89.0720   106.9490 c3         1 MG3       0.214100
     14 C19        113.8150    89.0990   108.4620 ca         1 MG3      -0.123300
     15 C20        114.9990    89.4160   109.1490 ca         1 MG3       0.477300
     16 C22        113.9990    89.2220   111.1990 ca         1 MG3       0.344900
     17 C23        112.7780    88.9000   110.6300 ca         1 MG3      -0.182000
     18 C24        112.6980    88.8430   109.2430 ca         1 MG3      -0.054000
     19 C26        117.6490    90.2100   109.4240 ca         1 MG3      -0.099000
     20 C27        118.6590    89.3010   109.7910 ca         1 MG3      -0.028300
     21 C28        119.6860    89.7730   110.6110 ca         1 MG3       0.138000
     22 C30        119.6920    91.0670   111.1150 ca         1 MG3      -0.074000
     23 C31        118.6640    91.9350   110.7930 ca         1 MG3      -0.108000
     24 C32        117.6590    91.5090   109.9380 ca         1 MG3       0.168000
     25 C34        118.6110    87.8600   109.3190 c3         1 MG3       0.153300
     26 C36        117.3310    86.8440   111.1330 c          1 MG3       0.580100
     27 C37        116.0890    86.0070   111.5090 c3         1 MG3       0.044700
     28 C38        116.1050    85.6530   113.0040 c3         1 MG3      -0.008200
     29 C39        114.8680    84.9730   113.4930 cc         1 MG3      -0.149400
     30 C40        114.5700    83.6350   113.4300 cd         1 MG3      -0.142100
     31 C42        112.8570    84.5690   114.5400 ca         1 MG3      -0.051200
     32 C43        111.7040    84.8250   115.2820 ca         1 MG3      -0.114000
     33 C44        111.4580    86.1380   115.6510 ca         1 MG3      -0.106000
     34 C45        112.3350    87.1760   115.2850 ca         1 MG3      -0.145000
     35 C46        113.4870    86.9180   114.5620 ca         1 MG3      -0.070000
     36 C47        113.7730    85.5980   114.1870 ca         1 MG3      -0.098800
     37 N02        116.0010    84.8170   110.6660 n          1 MG3      -0.400800
     38 N09        109.0160    85.5110   113.2280 n8         1 MG3      -1.007200
     39 N10        113.4740    85.5670   108.3030 ns         1 MG3      -0.471900
     40 N16        115.2850    83.2910   103.6440 n8         1 MG3      -0.996200
     41 N17        112.9780    87.9210   106.4350 n7         1 MG3      -0.881400
     42 N21        115.0910    89.4750   110.4720 nb         1 MG3      -0.671000
     43 N35        117.4670    87.1170   109.8280 ns         1 MG3      -0.491900
     44 N41        113.3620    83.3910   114.0470 na         1 MG3      -0.231700
     45 O49        115.4930    86.4500   107.8310 o          1 MG3      -0.637100
     46 O50        114.9820    83.3850   109.2660 o          1 MG3      -0.599100
     47 S25        116.4660    89.7440   108.1870 ss         1 MG3      -0.146300
     48 CL29       121.0500    88.7610   111.0430 cl         1 MG3      -0.193000
     49 CL33       116.4050    92.6480   109.5300 cl         1 MG3      -0.189000
     50 H1         117.9420    84.3470   111.2810 h1         1 MG3       0.046367
     51 H2         116.8550    82.9520   111.1870 h1         1 MG3       0.046367
     52 H3         117.4850    83.6810   109.7040 h1         1 MG3       0.046367
     53 H4         113.9340    86.3590   110.1410 h1         1 MG3       0.059700
     54 H5         112.4740    83.7030   110.2100 hc         1 MG3       0.068200
     55 H6         112.7230    84.8590   111.5080 hc         1 MG3       0.068200
     56 H7         111.3220    86.5230   110.0540 hc         1 MG3       0.037700
     57 H8         110.9050    85.1400   109.0670 hc         1 MG3       0.037700
     58 H9         109.1050    85.2450   110.5370 hc         1 MG3       0.047700
     59 H10        110.1080    84.0200   111.2960 hc         1 MG3       0.047700
     60 H11        111.0400    85.7650   112.8350 h1         1 MG3       0.032200
     61 H12        110.0450    86.9760   112.0430 h1         1 MG3       0.032200
     62 H13        113.0130    85.9570   105.8440 h1         1 MG3       0.066700
     63 H14        115.6000    87.5190   105.4350 hc         1 MG3       0.049700
     64 H15        114.3610    87.2750   104.2120 hc         1 MG3       0.049700
     65 H16        115.9810    85.0540   105.5680 hc         1 MG3       0.060700
     66 H17        116.2930    85.7220   103.9780 hc         1 MG3       0.060700
     67 H18        114.0030    84.9710   103.2470 h1         1 MG3       0.023200
     68 H19        113.8000    84.1690   104.8010 h1         1 MG3       0.023200
     69 H20        114.7250    89.1470   106.5150 h1         1 MG3       0.053700
     70 H21        113.1890    89.9690   106.6280 h1         1 MG3       0.053700
     71 H22        114.1180    89.2700   112.2750 h4         1 MG3       0.024100
     72 H23        111.9190    88.6920   111.2530 ha         1 MG3       0.126000
     73 H24        111.7680    88.5820   108.7540 ha         1 MG3       0.128000
     74 H25        120.4970    91.3930   111.7580 ha         1 MG3       0.135000
     75 H26        118.6520    92.9410   111.1890 ha         1 MG3       0.134000
     76 H27        119.5250    87.3560   109.6220 h1         1 MG3       0.070200
     77 H28        118.5540    87.8260   108.2340 h1         1 MG3       0.070200
     78 H29        115.2250    86.6350   111.3180 h1         1 MG3       0.074700
     79 H30        116.9810    85.0370   113.2090 hc         1 MG3       0.069200
     80 H31        116.2540    86.5820   113.5540 hc         1 MG3       0.069200
     81 H32        115.1330    82.8230   113.0000 h4         1 MG3       0.220000
     82 H33        111.0220    84.0280   115.5480 ha         1 MG3       0.121000
     83 H34        110.5690    86.3710   116.2230 ha         1 MG3       0.109000
     84 H35        112.1030    88.1920   115.5800 ha         1 MG3       0.110000
     85 H36        114.1590    87.7240   114.2920 ha         1 MG3       0.115000
     86 H37        109.1230    85.9920   114.1140 hn         1 MG3       0.394000
     87 H38        108.1200    85.8000   112.8480 hn         1 MG3       0.394000
     88 H40        112.5300    85.4400   107.9770 hn         1 MG3       0.326500
     89 H41        114.6440    82.6200   103.2350 hn         1 MG3       0.392000
     90 H42        115.9360    83.5420   102.9060 hn         1 MG3       0.392000
     91 H44        112.5040    88.1840   105.5810 hn         1 MG3       0.424000
     92 H46        116.7410    86.8350   109.1740 hn         1 MG3       0.367500
     93 H47        112.9390    82.4840   114.1510 hn         1 MG3       0.354000
     94 O48        118.1300    87.2280   111.9850 o          1 MG3      -0.611100
@<TRIPOS>BOND
     1     1    37 1   
     2     1    50 1   
     3     1    51 1   
     4     1    52 1   
     5     2     3 1   
     6     2    37 1   
     7     2    46 2   
     8     3     4 1   
     9     3    39 1   
    10     3    53 1   
    11     4     5 1   
    12     4    54 1   
    13     4    55 1   
    14     5     6 1   
    15     5    56 1   
    16     5    57 1   
    17     6     7 1   
    18     6    58 1   
    19     6    59 1   
    20     7    38 1   
    21     7    60 1   
    22     7    61 1   
    23     8     9 1   
    24     8    39 1   
    25     8    45 2   
    26     9    10 1   
    27     9    41 1   
    28     9    62 1   
    29    10    11 1   
    30    10    63 1   
    31    10    64 1   
    32    11    12 1   
    33    11    65 1   
    34    11    66 1   
    35    12    40 1   
    36    12    67 1   
    37    12    68 1   
    38    13    14 1   
    39    13    41 1   
    40    13    69 1   
    41    13    70 1   
    42    14    15 ar  
    43    14    18 ar  
    44    15    42 ar  
    45    15    47 1   
    46    16    17 ar  
    47    16    42 ar  
    48    16    71 1   
    49    17    18 ar  
    50    17    72 1   
    51    18    73 1   
    52    19    20 ar  
    53    19    24 ar  
    54    19    47 1   
    55    20    21 ar  
    56    20    25 1   
    57    21    22 ar  
    58    21    48 1   
    59    22    23 ar  
    60    22    74 1   
    61    23    24 ar  
    62    23    75 1   
    63    24    49 1   
    64    25    43 1   
    65    25    76 1   
    66    25    77 1   
    67    26    27 1   
    68    26    43 1   
    69    26    94 2   
    70    27    28 1   
    71    27    37 1   
    72    27    78 1   
    73    28    29 1   
    74    28    79 1   
    75    28    80 1   
    76    29    30 2   
    77    29    36 1   
    78    30    44 1   
    79    30    81 1   
    80    31    32 ar  
    81    31    36 ar  
    82    31    44 1   
    83    32    33 ar  
    84    32    82 1   
    85    33    34 ar  
    86    33    83 1   
    87    34    35 ar  
    88    34    84 1   
    89    35    36 ar  
    90    35    85 1   
    91    38    86 1   
    92    38    87 1   
    93    39    88 1   
    94    40    89 1   
    95    40    90 1   
    96    41    91 1   
    97    43    92 1   
    98    44    93 1   
@<TRIPOS>SUBSTRUCTURE
     1 MG3         1 TEMP              0 ****  ****    0 ROOT
