@<TRIPOS>MOLECULE
MG3
   94    98     1     0     0
SMALL
No Charge or Current Charge


@<TRIPOS>ATOM
      1 C01        117.1090    83.8460   110.5460 c3         1 MG3       0.085300
      2 C03        114.7130    84.4750   110.2340 c          1 MG3       0.597100
      3 C04        113.5540    85.5310   110.1290 c3         1 MG3       0.048700
      4 C05        112.2240    84.9740   110.7000 c3         1 MG3      -0.090400
      5 C06        111.0950    86.0310   110.8180 c3         1 MG3      -0.076400
      6 C07        109.6840    85.4300   111.0220 c3         1 MG3      -0.075400
      7 C08        109.4970    84.6680   112.3500 c3         1 MG3       0.146800
      8 C11        114.3130    86.3610   107.8490 c          1 MG3       0.615100
      9 C12        113.7670    86.7780   106.4370 c3         1 MG3       0.097500
     10 C13        114.8650    86.8600   105.3350 c3         1 MG3      -0.091400
     11 C14        115.5830    85.5240   105.0080 c3         1 MG3      -0.078400
     12 C15        114.6620    84.4390   104.4100 c3         1 MG3       0.149800
     13 C18        113.5560    89.2970   106.8870 c3         1 MG3       0.214100
     14 C19        113.8040    89.3200   108.3940 ca         1 MG3      -0.123300
     15 C20        115.1000    89.4380   108.9600 ca         1 MG3       0.477300
     16 C22        114.2370    89.4090   111.1180 ca         1 MG3       0.344900
     17 C23        112.9240    89.2870   110.6460 ca         1 MG3      -0.182000
     18 C24        112.6990    89.2430   109.2630 ca         1 MG3      -0.054000
     19 C26        117.8150    90.1300   109.0400 ca         1 MG3      -0.099000
     20 C27        118.8090    89.2550   109.5530 ca         1 MG3      -0.028300
     21 C28        119.8180    89.7890   110.3980 ca         1 MG3       0.138000
     22 C30        119.8110    91.1500   110.7430 ca         1 MG3      -0.074000
     23 C31        118.8130    92.0020   110.2480 ca         1 MG3      -0.108000
     24 C32        117.8220    91.4980   109.3950 ca         1 MG3       0.168000
     25 C34        118.7910    87.7610   109.1900 c3         1 MG3       0.153300
     26 C36        117.5240    86.8620   111.1840 c          1 MG3       0.580100
     27 C37        116.2930    86.0010   111.6100 c3         1 MG3       0.044700
     28 C38        116.4010    85.5300   113.0850 c3         1 MG3      -0.008200
     29 C39        115.1320    84.9040   113.5970 cc         1 MG3      -0.149400
     30 C40        114.8640    83.5510   113.7840 cd         1 MG3      -0.142100
     31 C42        113.0420    84.6720   114.4310 ca         1 MG3      -0.051200
     32 C43        111.7850    85.0500   114.9220 ca         1 MG3      -0.114000
     33 C44        111.4710    86.4260   114.9600 ca         1 MG3      -0.106000
     34 C45        112.4110    87.3860   114.5140 ca         1 MG3      -0.145000
     35 C46        113.6720    86.9750   114.0360 ca         1 MG3      -0.070000
     36 C47        113.9490    85.6010   114.0080 ca         1 MG3      -0.098800
     37 N02        116.0150    84.8400   110.6910 n          1 MG3      -0.400800
     38 N09        108.1430    84.0900   112.4540 n8         1 MG3      -1.007200
     39 N10        113.3420    85.9110   108.7160 ns         1 MG3      -0.471900
     40 N16        115.4190    83.2300   104.0440 n8         1 MG3      -0.996200
     41 N17        112.9300    88.0290   106.4370 n7         1 MG3      -0.881400
     42 N21        115.3050    89.4750   110.3000 nb         1 MG3      -0.671000
     43 N35        117.6980    87.0170   109.8270 ns         1 MG3      -0.491900
     44 N41        113.5550    83.3950   114.3040 na         1 MG3      -0.231700
     45 O49        115.4930    86.4180   108.1730 o          1 MG3      -0.637100
     46 O50        114.5170    83.3280   109.8410 o          1 MG3      -0.599100
     47 S25        116.5590    89.5250   107.9020 ss         1 MG3      -0.146300
     48 Cl29       121.1370    88.7990   111.0340 cl         1 MG3      -0.193000
     49 Cl33       116.6060    92.6110   108.7660 cl         1 MG3      -0.189000
     50 H1         118.0680    84.2640   110.8750 h1         1 MG3       0.046367
     51 H2         116.8850    82.9580   111.1510 h1         1 MG3       0.046367
     52 H3         117.2000    83.5490   109.4930 h1         1 MG3       0.046367
     53 H4         113.7990    86.4370   110.6840 h1         1 MG3       0.059700
     54 H5         111.8850    84.1440   110.0680 hc         1 MG3       0.068200
     55 H6         112.4160    84.5490   111.6920 hc         1 MG3       0.068200
     56 H7         111.3250    86.7150   111.6450 hc         1 MG3       0.037700
     57 H8         111.0650    86.6430   109.9090 hc         1 MG3       0.037700
     58 H9         108.9500    86.2440   110.9760 hc         1 MG3       0.047700
     59 H10        109.4590    84.7590   110.1830 hc         1 MG3       0.047700
     60 H11        110.2320    83.8550   112.4270 h1         1 MG3       0.032200
     61 H12        109.6470    85.3590   113.1900 h1         1 MG3       0.032200
     62 H13        113.1020    85.9530   106.1490 h1         1 MG3       0.066700
     63 H14        115.6230    87.5930   105.6360 hc         1 MG3       0.049700
     64 H15        114.4170    87.2430   104.4100 hc         1 MG3       0.049700
     65 H16        116.0690    85.1310   105.9100 hc         1 MG3       0.060700
     66 H17        116.3870    85.7370   104.2930 hc         1 MG3       0.060700
     67 H18        114.1650    84.8280   103.5110 h1         1 MG3       0.023200
     68 H19        113.8920    84.1550   105.1400 h1         1 MG3       0.023200
     69 H20        114.4700    89.5030   106.3180 h1         1 MG3       0.053700
     70 H21        112.8750    90.1300   106.6630 h1         1 MG3       0.053700
     71 H22        114.4410    89.4570   112.1860 h4         1 MG3       0.024100
     72 H23        112.0960    89.2340   111.3470 ha         1 MG3       0.126000
     73 H24        111.6880    89.1520   108.8700 ha         1 MG3       0.128000
     74 H25        120.5880    91.5460   111.3920 ha         1 MG3       0.135000
     75 H26        118.8140    93.0550   110.5150 ha         1 MG3       0.134000
     76 H27        119.7360    87.2730   109.4520 h1         1 MG3       0.070200
     77 H28        118.6860    87.6600   108.1020 h1         1 MG3       0.070200
     78 H29        115.4720    86.7170   111.5710 h1         1 MG3       0.074700
     79 H30        117.2380    84.8290   113.1930 hc         1 MG3       0.069200
     80 H31        116.6420    86.3880   113.7230 hc         1 MG3       0.069200
     81 H32        115.5070    82.6960   113.5910 h4         1 MG3       0.220000
     82 H33        111.0700    84.3060   115.2640 ha         1 MG3       0.121000
     83 H34        110.5020    86.7500   115.3330 ha         1 MG3       0.109000
     84 H35        112.1630    88.4440   114.5490 ha         1 MG3       0.110000
     85 H36        114.4110    87.7020   113.7100 ha         1 MG3       0.115000
     86 H37        108.0350    83.6550   113.3780 hn         1 MG3       0.394000
     87 H38        107.4550    84.8520   112.4650 hn         1 MG3       0.394000
     88 H40        112.3950    85.9360   108.3590 hn         1 MG3       0.326500
     89 H41        114.7820    82.5580   103.6000 hn         1 MG3       0.392000
     90 H42        116.0810    83.4640   103.2950 hn         1 MG3       0.392000
     91 H44        112.5820    88.1760   105.4800 hn         1 MG3       0.424000
     92 H46        116.9540    86.6460   109.2330 hn         1 MG3       0.367500
     93 H47        113.0940    82.5230   114.5480 hn         1 MG3       0.354000
     94 O48        118.3320    87.3120   111.9850 o          1 MG3      -0.611100
@<TRIPOS>BOND
     1     1    37 1   
     2     1    50 1   
     3     1    51 1   
     4     1    52 1   
     5     2     3 1   
     6     2    37 1   
     7     2    46 2   
     8     3     4 1   
     9     3    39 1   
    10     3    53 1   
    11     4     5 1   
    12     4    54 1   
    13     4    55 1   
    14     5     6 1   
    15     5    56 1   
    16     5    57 1   
    17     6     7 1   
    18     6    58 1   
    19     6    59 1   
    20     7    38 1   
    21     7    60 1   
    22     7    61 1   
    23     8     9 1   
    24     8    39 1   
    25     8    45 2   
    26     9    10 1   
    27     9    41 1   
    28     9    62 1   
    29    10    11 1   
    30    10    63 1   
    31    10    64 1   
    32    11    12 1   
    33    11    65 1   
    34    11    66 1   
    35    12    40 1   
    36    12    67 1   
    37    12    68 1   
    38    13    14 1   
    39    13    41 1   
    40    13    69 1   
    41    13    70 1   
    42    14    15 ar  
    43    14    18 ar  
    44    15    42 ar  
    45    15    47 1   
    46    16    17 ar  
    47    16    42 ar  
    48    16    71 1   
    49    17    18 ar  
    50    17    72 1   
    51    18    73 1   
    52    19    20 ar  
    53    19    24 ar  
    54    19    47 1   
    55    20    21 ar  
    56    20    25 1   
    57    21    22 ar  
    58    21    48 1   
    59    22    23 ar  
    60    22    74 1   
    61    23    24 ar  
    62    23    75 1   
    63    24    49 1   
    64    25    43 1   
    65    25    76 1   
    66    25    77 1   
    67    26    27 1   
    68    26    43 1   
    69    26    94 2   
    70    27    28 1   
    71    27    37 1   
    72    27    78 1   
    73    28    29 1   
    74    28    79 1   
    75    28    80 1   
    76    29    30 2   
    77    29    36 1   
    78    30    44 1   
    79    30    81 1   
    80    31    32 ar  
    81    31    36 ar  
    82    31    44 1   
    83    32    33 ar  
    84    32    82 1   
    85    33    34 ar  
    86    33    83 1   
    87    34    35 ar  
    88    34    84 1   
    89    35    36 ar  
    90    35    85 1   
    91    38    86 1   
    92    38    87 1   
    93    39    88 1   
    94    40    89 1   
    95    40    90 1   
    96    41    91 1   
    97    43    92 1   
    98    44    93 1   
@<TRIPOS>SUBSTRUCTURE
     1 MG3         1 TEMP              0 ****  ****    0 ROOT
