@<TRIPOS>MOLECULE
MG5
   53    53     1     0     0
SMALL
bcc


@<TRIPOS>ATOM
      1 O5          16.7210     0.2030    13.1270 os         1 MG5      -0.429600
      2 C1          16.8820     0.0160    11.7360 c6         1 MG5       0.351900
      3 C2          16.3840     1.2640    11.0080 c6         1 MG5       0.111100
      4 O2          16.7150     1.1360     9.6340 os         1 MG5      -0.431900
      5 C2B         15.8170     1.4510     8.6910 c          1 MG5       0.649100
      6 O2C         14.6810     1.7650     8.9260 o          1 MG5      -0.512000
      7 C2D         16.4360     1.3580     7.3240 c3         1 MG5      -0.138400
      8 C2E         15.4980     1.7740     6.2060 c3         1 MG5      -0.081100
      9 C3          17.0900     2.4990    11.5480 c6         1 MG5       0.113100
     10 O3          16.4970     3.6520    10.9730 os         1 MG5      -0.416900
     11 C3B         17.2360     4.4870    10.2270 c          1 MG5       0.646100
     12 O3C         18.4030     4.3200     9.9950 o          1 MG5      -0.528000
     13 C3D         16.3990     5.6310     9.7290 c3         1 MG5      -0.140400
     14 C3E         17.2030     6.6960     9.0070 c3         1 MG5      -0.081100
     15 C4          16.9380     2.5640    13.0590 c6         1 MG5       0.110100
     16 O4          17.6930     3.6640    13.5380 os         1 MG5      -0.433900
     17 C4B         17.0610     4.7260    14.0640 c          1 MG5       0.644100
     18 O4C         15.8700     4.7860    14.2150 o          1 MG5      -0.502000
     19 C4D         18.0360     5.8200    14.3950 c3         1 MG5      -0.134400
     20 C4E         18.5700     6.4950    13.1300 c3         1 MG5      -0.089100
     21 C5          17.4960     1.2610    13.6400 c6         1 MG5       0.155100
     22 C6          17.5020     1.2080    15.1480 c3         1 MG5       0.185400
     23 O6          16.1890     1.5420    15.6200 os         1 MG5      -0.526500
     24 S5C         15.9250     1.5960    17.1930 s6         1 MG5       1.541400
     25 O5D         14.5780     2.1050    17.2800 o          1 MG5      -0.620800
     26 O5E         17.0070     2.2830    17.8610 o          1 MG5      -0.620800
     27 N5F         16.0550     0.0100    17.5830 n8         1 MG5      -0.946700
     28 O1          16.1130    -1.0470    11.3410 oh         1 MG5      -0.558800
     29 H1          17.9520    -0.1360    11.5160 h2         1 MG5       0.030700
     30 H2          15.3020     1.3510    11.1510 h1         1 MG5       0.115700
     31 H2D         17.3390     1.9740     7.3210 hc         1 MG5       0.073200
     32 H2DA        16.7840     0.3310     7.1770 hc         1 MG5       0.073200
     33 H2E         16.0040     1.6860     5.2460 hc         1 MG5       0.045033
     34 H2EA        14.6090     1.1450     6.1710 hc         1 MG5       0.045033
     35 H2EB        15.1760     2.8090     6.3170 hc         1 MG5       0.045033
     36 H3          18.1540     2.4470    11.2940 h1         1 MG5       0.087700
     37 H3D         15.6270     5.2150     9.0750 hc         1 MG5       0.079700
     38 H3DA        15.8600     6.0590    10.5790 hc         1 MG5       0.079700
     39 H3E         16.5420     7.4890     8.6620 hc         1 MG5       0.044033
     40 H3EA        17.9490     7.1460     9.6620 hc         1 MG5       0.044033
     41 H3EB        17.7190     6.2930     8.1360 hc         1 MG5       0.044033
     42 H4          15.8850     2.6670    13.3290 h1         1 MG5       0.120700
     43 H4D         17.5260     6.5480    15.0230 hc         1 MG5       0.074700
     44 H4DA        18.8660     5.4070    14.9710 hc         1 MG5       0.074700
     45 H4E         19.2370     7.3110    13.4030 hc         1 MG5       0.045367
     46 H4EA        19.1300     5.7990    12.5070 hc         1 MG5       0.045367
     47 H4EB        17.7600     6.9150    12.5330 hc         1 MG5       0.045367
     48 H5          18.5500     1.1520    13.3360 h1         1 MG5       0.051700
     49 H61         17.7810     0.2050    15.4790 h1         1 MG5       0.069200
     50 H62         18.2360     1.9180    15.5310 h1         1 MG5       0.069200
     51 HN5F        16.3170    -0.1360    18.5520 hn         1 MG5       0.430800
     52 HN5A        15.2420    -0.5420    17.3310 hn         1 MG5       0.430800
     53 HO1         16.5800    -1.8710    11.5160 ho         1 MG5       0.423000
@<TRIPOS>BOND
     1     1     2 1   
     2     1    21 1   
     3     2     3 1   
     4     2    28 1   
     5     2    29 1   
     6     3     4 1   
     7     3     9 1   
     8     3    30 1   
     9     4     5 1   
    10     5     6 2   
    11     5     7 1   
    12     7     8 1   
    13     7    31 1   
    14     7    32 1   
    15     8    33 1   
    16     8    34 1   
    17     8    35 1   
    18     9    10 1   
    19     9    15 1   
    20     9    36 1   
    21    10    11 1   
    22    11    12 2   
    23    11    13 1   
    24    13    14 1   
    25    13    37 1   
    26    13    38 1   
    27    14    39 1   
    28    14    40 1   
    29    14    41 1   
    30    15    16 1   
    31    15    21 1   
    32    15    42 1   
    33    16    17 1   
    34    17    18 2   
    35    17    19 1   
    36    19    20 1   
    37    19    43 1   
    38    19    44 1   
    39    20    45 1   
    40    20    46 1   
    41    20    47 1   
    42    21    22 1   
    43    21    48 1   
    44    22    23 1   
    45    22    49 1   
    46    22    50 1   
    47    23    24 1   
    48    24    25 2   
    49    24    26 2   
    50    24    27 1   
    51    27    51 1   
    52    27    52 1   
    53    28    53 1   
@<TRIPOS>SUBSTRUCTURE
     1 MG5         1 TEMP              0 ****  ****    0 ROOT
