@<TRIPOS>MOLECULE
MG5
   53    53     1     0     0
SMALL
No Charge or Current Charge


@<TRIPOS>ATOM
      1 O5          17.1740     0.1050    13.2270 os         1 MG5      -0.476000
      2 C1          17.2830    -0.0670    11.8150 c6         1 MG5       0.398300
      3 C2          16.5480     1.0890    11.0730 c6         1 MG5       0.134300
      4 O2          16.6220     0.8920     9.6320 os         1 MG5      -0.455100
      5 C2B         15.6140     1.3100     8.8020 c          1 MG5       0.600100
      6 O2C         14.5790     1.8390     9.1810 o          1 MG5      -0.463000
      7 C2D         15.8940     0.9570     7.3390 c3         1 MG5      -0.138400
      8 C2E         16.4440     2.1660     6.5530 c3         1 MG5      -0.081100
      9 C3          17.1470     2.4630    11.5280 c6         1 MG5       0.136300
     10 O3          16.3920     3.5650    10.9690 os         1 MG5      -0.440100
     11 C3B         16.7820     4.1820     9.8100 c          1 MG5       0.597100
     12 O3C         17.8360     3.9650     9.2310 o          1 MG5      -0.479000
     13 C3D         15.7760     5.2420     9.3630 c3         1 MG5      -0.140400
     14 C3E         16.1210     6.6340     9.9350 c3         1 MG5      -0.081100
     15 C4          17.1730     2.5750    13.0870 c6         1 MG5       0.133300
     16 O4          17.9260     3.7420    13.5070 os         1 MG5      -0.457100
     17 C4B         17.3400     4.9780    13.6060 c          1 MG5       0.595100
     18 O4C         16.1420     5.1900    13.4910 o          1 MG5      -0.453000
     19 C4D         18.3570     6.0500    14.0010 c3         1 MG5      -0.134400
     20 C4E         18.8370     6.8550    12.7730 c3         1 MG5      -0.089100
     21 C5          17.8210     1.3050    13.7130 c6         1 MG5       0.178300
     22 C6          17.7450     1.2950    15.2690 c3         1 MG5       0.208600
     23 O6          16.3740     1.4360    15.6950 os         1 MG5      -0.549700
     24 S5C         16.0940     1.3940    17.2980 s6         1 MG5       1.399800
     25 O5D         15.0370     2.3400    17.6380 o          1 MG5      -0.550000
     26 O5E         17.3390     1.2820    18.0570 o          1 MG5      -0.550000
     27 N5F         15.3880    -0.0540    17.2920 n8         1 MG5      -1.057100
     28 O1          16.6900    -1.3250    11.5520 oh         1 MG5      -0.621000
     29 H1          18.3440    -0.0900    11.5250 h2         1 MG5       0.030700
     30 H2          15.4960     1.0420    11.3900 h1         1 MG5       0.115700
     31 H2D         16.6530     0.1660     7.2950 hc         1 MG5       0.073200
     32 H2DA        14.9630     0.6230     6.8670 hc         1 MG5       0.073200
     33 H2E         16.5950     1.9010     5.4990 hc         1 MG5       0.045033
     34 H2EA        15.7460     3.0110     6.5970 hc         1 MG5       0.045033
     35 H2EB        17.4080     2.4900     6.9630 hc         1 MG5       0.045033
     36 H3          18.1910     2.5190    11.1850 h1         1 MG5       0.087700
     37 H3D         15.7740     5.2980     8.2690 hc         1 MG5       0.079700
     38 H3DA        14.7820     4.9730     9.7380 hc         1 MG5       0.079700
     39 H3E         15.4080     7.3850     9.5740 hc         1 MG5       0.044033
     40 H3EA        16.0760     6.6220    11.0310 hc         1 MG5       0.044033
     41 H3EB        17.1290     6.9420     9.6320 hc         1 MG5       0.044033
     42 H4          16.1400     2.6470    13.4610 h1         1 MG5       0.120700
     43 H4D         17.9010     6.7370    14.7220 hc         1 MG5       0.074700
     44 H4DA        19.2400     5.5660    14.4340 hc         1 MG5       0.074700
     45 H4E         19.6080     7.5770    13.0660 hc         1 MG5       0.045367
     46 H4EA        19.2610     6.1880    12.0120 hc         1 MG5       0.045367
     47 H4EB        18.0050     7.4090    12.3230 hc         1 MG5       0.045367
     48 H5          18.8830     1.2660    13.4300 h1         1 MG5       0.051700
     49 H61         18.1780     0.3500    15.6270 h1         1 MG5       0.069200
     50 H62         18.3620     2.1190    15.6520 h1         1 MG5       0.069200
     51 HN5F        14.4600     0.2310    17.5890 hn         1 MG5       0.486000
     52 HN5A        15.3010    -0.1470    16.2830 hn         1 MG5       0.486000
     53 HO1         16.7390    -1.7840    12.4160 ho         1 MG5       0.462000
@<TRIPOS>BOND
     1     1     2 1   
     2     1    21 1   
     3     2     3 1   
     4     2    28 1   
     5     2    29 1   
     6     3     4 1   
     7     3     9 1   
     8     3    30 1   
     9     4     5 1   
    10     5     6 2   
    11     5     7 1   
    12     7     8 1   
    13     7    31 1   
    14     7    32 1   
    15     8    33 1   
    16     8    34 1   
    17     8    35 1   
    18     9    10 1   
    19     9    15 1   
    20     9    36 1   
    21    10    11 1   
    22    11    12 2   
    23    11    13 1   
    24    13    14 1   
    25    13    37 1   
    26    13    38 1   
    27    14    39 1   
    28    14    40 1   
    29    14    41 1   
    30    15    16 1   
    31    15    21 1   
    32    15    42 1   
    33    16    17 1   
    34    17    18 2   
    35    17    19 1   
    36    19    20 1   
    37    19    43 1   
    38    19    44 1   
    39    20    45 1   
    40    20    46 1   
    41    20    47 1   
    42    21    22 1   
    43    21    48 1   
    44    22    23 1   
    45    22    49 1   
    46    22    50 1   
    47    23    24 1   
    48    24    25 2   
    49    24    26 2   
    50    24    27 1   
    51    27    51 1   
    52    27    52 1   
    53    28    53 1   
@<TRIPOS>SUBSTRUCTURE
     1 MG5         1 TEMP              0 ****  ****    0 ROOT
