@<TRIPOS>MOLECULE
MG7
   37    39     1     0     0
SMALL
No Charge or Current Charge


@<TRIPOS>ATOM
      1 N9          -0.1660     0.0010    -0.4060 na         1 MG7      -0.052700
      2 C8          -0.2740     1.0860    -1.2460 cc         1 MG7      -0.030300
      3 N7          -1.5910     1.5220    -1.1700 na         1 MG7       0.121000
      4 C5          -2.2830     0.6830    -0.2900 cc         1 MG7      -0.370600
      5 C6          -3.6760     0.6800     0.1360 c          1 MG7       0.633600
      6 O6          -4.5290     1.4690    -0.2330 o          1 MG7      -0.476000
      7 N1          -3.9280    -0.3190     1.0020 ns         1 MG7      -0.449400
      8 C2          -2.9990    -1.2000     1.4070 cc         1 MG7       0.785800
      9 N2          -3.4010    -2.1250     2.2540 nv         1 MG7      -1.019200
     10 N3          -1.7380    -1.2530     1.0530 nd         1 MG7      -0.708100
     11 C4          -1.3840    -0.2460     0.1670 cd         1 MG7       0.222400
     12 O5           4.2790     0.5510     2.5070 oh         1 MG7      -0.699000
     13 C7           4.1040     0.8560     1.1110 c3         1 MG7       0.165600
     14 C10          3.2470    -0.2280     0.3990 c5         1 MG7       0.152300
     15 O4           1.8660    -0.1410     0.8160 os         1 MG7      -0.423000
     16 C1           1.0410    -0.8040    -0.1800 c5         1 MG7       0.309300
     17 CN7         -2.1540     2.6680    -1.8970 c3         1 MG7       0.043900
     18 C9           1.9680    -1.0590    -1.4280 c5         1 MG7       0.107300
     19 O2           2.4960    -2.3930    -1.4820 oh         1 MG7      -0.691000
     20 C3           3.1410    -0.0760    -1.1480 c5         1 MG7       0.094300
     21 O3           4.3240    -0.4840    -1.8610 oh         1 MG7      -0.690000
     22 H8           0.5140     1.5350    -1.8400 h5         1 MG7       0.234000
     23 HN1         -4.8750    -0.4140     1.3230 hn         1 MG7       0.353500
     24 HN21        -2.6230    -2.6530     2.6250 hn         1 MG7       0.535000
     25 HN22        -4.0660    -1.8290     2.9570 hn         1 MG7       0.535000
     26 HO5          4.7760     1.3040     2.9070 ho         1 MG7       0.520000
     27 H5'1         5.0830     0.9080     0.6160 h1         1 MG7       0.026700
     28 H5'2         3.6170     1.8320     0.9870 h1         1 MG7       0.026700
     29 H1           0.6870    -1.7680     0.2070 h2         1 MG7       0.147700
     30 H71         -2.9640     2.3230    -2.5500 h1         1 MG7       0.092367
     31 H72         -2.5510     3.3960    -1.1810 h1         1 MG7       0.092367
     32 H73         -1.3780     3.1460    -2.5060 h1         1 MG7       0.092367
     33 H2           1.4560    -0.8140    -2.3700 h1         1 MG7       0.078700
     34 HO2          3.4290    -2.2500    -1.7910 ho         1 MG7       0.543000
     35 H3           2.8600     0.9520    -1.4190 h1         1 MG7       0.044700
     36 HO3          4.8830     0.3180    -2.0070 ho         1 MG7       0.529000
     37 H4           3.6440    -1.2170     0.6680 h1         1 MG7       0.119700
@<TRIPOS>BOND
     1     1     2 2   
     2     1    11 1   
     3     1    16 1   
     4     2     3 1   
     5     2    22 1   
     6     3     4 1   
     7     3    17 1   
     8     4     5 1   
     9     4    11 2   
    10     5     6 2   
    11     5     7 1   
    12     7     8 1   
    13     7    23 1   
    14     8     9 1   
    15     8    10 2   
    16     9    24 1   
    17     9    25 1   
    18    10    11 1   
    19    12    13 1   
    20    12    26 1   
    21    13    14 1   
    22    13    27 1   
    23    13    28 1   
    24    14    15 1   
    25    14    20 1   
    26    14    37 1   
    27    15    16 1   
    28    16    18 1   
    29    16    29 1   
    30    17    30 1   
    31    17    31 1   
    32    17    32 1   
    33    18    19 1   
    34    18    20 1   
    35    18    33 1   
    36    19    34 1   
    37    20    21 1   
    38    20    35 1   
    39    21    36 1   
@<TRIPOS>SUBSTRUCTURE
     1 MG7         1 TEMP              0 ****  ****    0 ROOT
