@<TRIPOS>MOLECULE
MG7
   37    39     1     0     0
SMALL
bcc


@<TRIPOS>ATOM
      1 N9           0.0520     0.2450     0.4810 na         1 MG7      -0.074100
      2 C8           0.0890     1.5650     0.2590 cc         1 MG7       0.002400
      3 N7          -1.0990     1.9920    -0.1090 na         1 MG7       0.048900
      4 C5          -1.9540     0.9130    -0.1180 cc         1 MG7      -0.319900
      5 C6          -3.3420     0.7830    -0.4250 c          1 MG7       0.776100
      6 O6          -4.1190     1.6460    -0.7810 o          1 MG7      -0.551500
      7 N1          -3.7360    -0.5440    -0.2610 ns         1 MG7      -0.516400
      8 C2          -2.9410    -1.5840     0.1320 cc         1 MG7       0.785800
      9 N2          -3.5050    -2.7800     0.2340 nv         1 MG7      -0.908800
     10 N3          -1.6590    -1.4390     0.4060 nd         1 MG7      -0.708100
     11 C4          -1.2300    -0.1900     0.2630 cd         1 MG7       0.273100
     12 O5           4.4580     1.9810     0.9070 oh         1 MG7      -0.576800
     13 C7           3.8640     1.3520    -0.1990 c3         1 MG7       0.142400
     14 C10          3.2990     0.0240     0.2370 c5         1 MG7       0.129100
     15 O4           2.2590     0.2110     1.2060 os         1 MG7      -0.376600
     16 C1           1.1700    -0.6040     0.9410 c5         1 MG7       0.256800
     17 CN7         -1.4370     3.3650    -0.4440 c3         1 MG7       0.014600
     18 C9           1.5940    -1.5860    -0.1490 c5         1 MG7       0.084100
     19 O2           2.1860    -2.6780     0.4960 oh         1 MG7      -0.568800
     20 C3           2.6390    -0.7530    -0.8990 c5         1 MG7       0.071100
     21 O3           3.5910    -1.5220    -1.5730 oh         1 MG7      -0.567800
     22 H8           0.9520     2.1970     0.3750 h5         1 MG7       0.252000
     23 HN1         -4.7120    -0.7330    -0.4600 hn         1 MG7       0.353500
     24 HN21        -2.9450    -3.5630     0.5250 hn         1 MG7       0.479800
     25 HN22        -4.4810    -2.9380     0.0500 hn         1 MG7       0.479800
     26 HO5          4.8270     2.8200     0.6150 ho         1 MG7       0.421000
     27 H5'1         4.5880     1.1510    -1.0000 h1         1 MG7       0.026700
     28 H5'2         3.0660     1.9630    -0.6430 h1         1 MG7       0.026700
     29 H1           0.8250    -1.1080     1.8460 h2         1 MG7       0.147700
     30 H71         -1.7580     3.4200    -1.4800 h1         1 MG7       0.092367
     31 H72         -2.2320     3.7140     0.2080 h1         1 MG7       0.092367
     32 H73         -0.5560     3.9820    -0.3030 h1         1 MG7       0.092367
     33 H2           0.7580    -1.8910    -0.7880 h1         1 MG7       0.078700
     34 HO2          2.8660    -3.0330    -0.0890 ho         1 MG7       0.444000
     35 H3           2.1270    -0.0600    -1.5810 h1         1 MG7       0.044700
     36 HO3          3.2360    -1.7780    -2.4310 ho         1 MG7       0.430000
     37 H4           4.0940    -0.5810     0.6880 h1         1 MG7       0.119700
@<TRIPOS>BOND
     1     1     2 2   
     2     1    11 1   
     3     1    16 1   
     4     2     3 1   
     5     2    22 1   
     6     3     4 1   
     7     3    17 1   
     8     4     5 1   
     9     4    11 2   
    10     5     6 2   
    11     5     7 1   
    12     7     8 1   
    13     7    23 1   
    14     8     9 1   
    15     8    10 2   
    16     9    24 1   
    17     9    25 1   
    18    10    11 1   
    19    12    13 1   
    20    12    26 1   
    21    13    14 1   
    22    13    27 1   
    23    13    28 1   
    24    14    15 1   
    25    14    20 1   
    26    14    37 1   
    27    15    16 1   
    28    16    18 1   
    29    16    29 1   
    30    17    30 1   
    31    17    31 1   
    32    17    32 1   
    33    18    19 1   
    34    18    20 1   
    35    18    33 1   
    36    19    34 1   
    37    20    21 1   
    38    20    35 1   
    39    21    36 1   
@<TRIPOS>SUBSTRUCTURE
     1 MG7         1 TEMP              0 ****  ****    0 ROOT
