@<TRIPOS>MOLECULE
MG8
   53    52     1     0     0
SMALL
abcg2


@<TRIPOS>ATOM
      1 C1          14.4260    13.4410    -2.5680 c3         1 MG8      -0.088100
      2 C2          14.0610    12.0220    -2.1540 c3         1 MG8      -0.074400
      3 C3          15.2250    11.0480    -2.2910 c3         1 MG8      -0.075400
      4 C4          14.8720     9.6200    -1.8960 c3         1 MG8      -0.074400
      5 C5          16.0520     8.6640    -2.0080 c3         1 MG8      -0.077400
      6 C6          15.6920     7.2190    -1.6820 c3         1 MG8      -0.065400
      7 C7          16.9130     6.3150    -1.7430 c3         1 MG8      -0.152400
      8 C8          16.6040     4.8440    -1.5650 c          1 MG8       0.608100
      9 O8          15.4490     4.4370    -1.4980 o          1 MG8      -0.617100
     10 N           17.6670     4.0100    -1.4810 n          1 MG8      -0.404800
     11 C9          17.4600     2.5770    -1.4210 c3         1 MG8       0.064000
     12 C10         17.5610     1.9210    -2.8000 c3         1 MG8       0.136300
     13 O10         16.6780     2.5390    -3.7200 oh         1 MG8      -0.725000
     14 C11         17.3340     0.4040    -2.7200 c3         1 MG8       0.104300
     15 O11         18.3150    -0.0960    -1.8350 oh         1 MG8      -0.721000
     16 C12         17.4640    -0.2710    -4.1040 c3         1 MG8       0.127300
     17 O12         16.4350     0.1200    -4.9790 oh         1 MG8      -0.712000
     18 C13         17.4630    -1.8020    -4.0320 c3         1 MG8       0.141300
     19 O13         17.7820    -2.3650    -5.2860 oh         1 MG8      -0.687000
     20 C14         16.1160    -2.3690    -3.6040 c3         1 MG8       0.162600
     21 O14         16.1450    -3.7630    -3.4080 oh         1 MG8      -0.698000
     22 C15         19.0280     4.4560    -1.7160 c3         1 MG8       0.085300
     23 H11A        13.5830    14.1230    -2.4520 hc         1 MG8       0.031367
     24 H12A        15.2490    13.8270    -1.9640 hc         1 MG8       0.031367
     25 H13A        14.7400    13.4790    -3.6130 hc         1 MG8       0.031367
     26 H21         13.7110    12.0220    -1.1170 hc         1 MG8       0.037200
     27 H22         13.2190    11.6680    -2.7570 hc         1 MG8       0.037200
     28 H31         15.5840    11.0580    -3.3260 hc         1 MG8       0.036200
     29 H32         16.0640    11.3990    -1.6790 hc         1 MG8       0.036200
     30 H41         14.0500     9.2620    -2.5250 hc         1 MG8       0.039700
     31 H42         14.4930     9.6100    -0.8680 hc         1 MG8       0.039700
     32 H51         16.8560     9.0020    -1.3450 hc         1 MG8       0.034700
     33 H52         16.4610     8.7110    -3.0230 hc         1 MG8       0.034700
     34 H61         15.2420     7.1690    -0.6860 hc         1 MG8       0.055700
     35 H62         14.9280     6.8710    -2.3820 hc         1 MG8       0.055700
     36 H71         17.4190     6.4420    -2.7070 hc         1 MG8       0.058700
     37 H72         17.6430     6.6350    -0.9930 hc         1 MG8       0.058700
     38 H91         18.2050     2.1470    -0.7540 h1         1 MG8       0.073200
     39 H92         16.4820     2.3720    -0.9840 h1         1 MG8       0.073200
     40 H10         18.5670     2.0880    -3.2030 h1         1 MG8       0.082700
     41 HO10        15.8190     2.6550    -3.2960 ho         1 MG8       0.526000
     42 H11         16.3200     0.2290    -2.3300 h1         1 MG8       0.046700
     43 HO11        17.9440    -0.8170    -1.3200 ho         1 MG8       0.510000
     44 H12         18.4530     0.0230    -4.5010 h1         1 MG8       0.037700
     45 HO12        16.3540     1.0820    -4.9080 ho         1 MG8       0.527000
     46 H13         18.2140    -2.0990    -3.2850 h1         1 MG8       0.024700
     47 HO13        18.7010    -2.1600    -5.4840 ho         1 MG8       0.499000
     48 H141        15.3700    -2.1780    -4.3770 h1         1 MG8       0.054700
     49 H142        15.7780    -1.8460    -2.7000 h1         1 MG8       0.054700
     50 HO14        16.7480    -3.9540    -2.6830 ho         1 MG8       0.488000
     51 H151        19.2810     5.3220    -1.1080 h1         1 MG8       0.041700
     52 H152        19.2140     4.7050    -2.7630 h1         1 MG8       0.041700
     53 H153        19.7110     3.6560    -1.4360 h1         1 MG8       0.041700
@<TRIPOS>BOND
     1     1     2 1   
     2     1    23 1   
     3     1    24 1   
     4     1    25 1   
     5     2     3 1   
     6     2    26 1   
     7     2    27 1   
     8     3     4 1   
     9     3    28 1   
    10     3    29 1   
    11     4     5 1   
    12     4    30 1   
    13     4    31 1   
    14     5     6 1   
    15     5    32 1   
    16     5    33 1   
    17     6     7 1   
    18     6    34 1   
    19     6    35 1   
    20     7     8 1   
    21     7    36 1   
    22     7    37 1   
    23     8     9 2   
    24     8    10 1   
    25    10    11 1   
    26    10    22 1   
    27    11    12 1   
    28    11    38 1   
    29    11    39 1   
    30    12    13 1   
    31    12    14 1   
    32    12    40 1   
    33    13    41 1   
    34    14    15 1   
    35    14    16 1   
    36    14    42 1   
    37    15    43 1   
    38    16    17 1   
    39    16    18 1   
    40    16    44 1   
    41    17    45 1   
    42    18    19 1   
    43    18    20 1   
    44    18    46 1   
    45    19    47 1   
    46    20    21 1   
    47    20    48 1   
    48    20    49 1   
    49    21    50 1   
    50    22    51 1   
    51    22    52 1   
    52    22    53 1   
@<TRIPOS>SUBSTRUCTURE
     1 MG8         1 TEMP              0 ****  ****    0 ROOT
