@<TRIPOS>MOLECULE
MG8
   53    52     1     0     0
SMALL
No Charge or Current Charge


@<TRIPOS>ATOM
      1 C1          14.2640    13.6240    -2.2790 c3         1 MG8      -0.088100
      2 C2          13.9390    12.1210    -2.3690 c3         1 MG8      -0.074400
      3 C3          15.1730    11.2210    -2.1400 c3         1 MG8      -0.075400
      4 C4          14.8470     9.7140    -2.2300 c3         1 MG8      -0.074400
      5 C5          16.0820     8.8140    -2.0010 c3         1 MG8      -0.077400
      6 C6          15.7570     7.3080    -2.0910 c3         1 MG8      -0.065400
      7 C7          16.9970     6.4100    -1.8610 c3         1 MG8      -0.152400
      8 C8          16.7430     4.8900    -1.9260 c          1 MG8       0.608100
      9 O8          15.6570     4.4360    -2.2660 o          1 MG8      -0.617100
     10 N           17.7970     4.0030    -1.6150 n          1 MG8      -0.404800
     11 C9          17.5420     2.5420    -1.4770 c3         1 MG8       0.064000
     12 C10         17.5570     1.7820    -2.8310 c3         1 MG8       0.136300
     13 O10         16.4460     2.2520    -3.6280 oh         1 MG8      -0.725000
     14 C11         17.4820     0.2220    -2.6750 c3         1 MG8       0.104300
     15 O11         18.5740    -0.2480    -1.8580 oh         1 MG8      -0.721000
     16 C12         17.5170    -0.5240    -4.0540 c3         1 MG8       0.127300
     17 O12         16.4420    -0.0590    -4.8900 oh         1 MG8      -0.712000
     18 C13         17.4540    -2.0800    -3.9670 c3         1 MG8       0.141300
     19 O13         17.3580    -2.5770    -5.3130 oh         1 MG8      -0.687000
     20 C14         16.2540    -2.6290    -3.1410 c3         1 MG8       0.162600
     21 O14         16.1960    -4.0560    -3.2930 oh         1 MG8      -0.698000
     22 C15         19.1820     4.4800    -1.3940 c3         1 MG8       0.085300
     23 H11A        13.3600    14.2210    -2.4480 hc         1 MG8       0.031367
     24 H12A        14.6620    13.8770    -1.2890 hc         1 MG8       0.031367
     25 H13A        15.0070    13.9070    -3.0340 hc         1 MG8       0.031367
     26 H21         13.1690    11.8780    -1.6270 hc         1 MG8       0.037200
     27 H22         13.5110    11.9070    -3.3560 hc         1 MG8       0.037200
     28 H31         15.9420    11.4680    -2.8830 hc         1 MG8       0.036200
     29 H32         15.5990    11.4390    -1.1530 hc         1 MG8       0.036200
     30 H41         14.4210     9.4960    -3.2180 hc         1 MG8       0.039700
     31 H42         14.0790     9.4660    -1.4870 hc         1 MG8       0.039700
     32 H51         16.5080     9.0320    -1.0140 hc         1 MG8       0.034700
     33 H52         16.8510     9.0620    -2.7440 hc         1 MG8       0.034700
     34 H61         14.9890     7.0590    -1.3480 hc         1 MG8       0.055700
     35 H62         15.3300     7.0890    -3.0790 hc         1 MG8       0.055700
     36 H71         17.7950     6.6460    -2.5740 hc         1 MG8       0.058700
     37 H72         17.4860     6.6340    -0.9060 hc         1 MG8       0.058700
     38 H91         18.3120     2.1200    -0.8190 h1         1 MG8       0.073200
     39 H92         16.5790     2.3810    -0.9750 h1         1 MG8       0.073200
     40 H10         18.5050     2.0200    -3.3340 h1         1 MG8       0.082700
     41 HO10        16.0950     3.0690    -3.1660 ho         1 MG8       0.526000
     42 H11         16.5290    -0.0160    -2.1830 h1         1 MG8       0.046700
     43 HO11        18.2470    -0.3390    -0.9320 ho         1 MG8       0.510000
     44 H12         18.4720    -0.2640    -4.5310 h1         1 MG8       0.037700
     45 HO12        16.2950     0.8850    -4.5820 ho         1 MG8       0.527000
     46 H13         18.3820    -2.4420    -3.5040 h1         1 MG8       0.024700
     47 HO13        16.9110    -1.8340    -5.7900 ho         1 MG8       0.499000
     48 H141        15.3230    -2.1660    -3.4980 h1         1 MG8       0.054700
     49 H142        16.3780    -2.3590    -2.0840 h1         1 MG8       0.054700
     50 HO14        16.5430    -4.2090    -4.2060 ho         1 MG8       0.488000
     51 H151        19.2310     5.0640    -0.4660 h1         1 MG8       0.041700
     52 H152        19.5020     5.1060    -2.2360 h1         1 MG8       0.041700
     53 H153        19.8720     3.6310    -1.3130 h1         1 MG8       0.041700
@<TRIPOS>BOND
     1     1     2 1   
     2     1    23 1   
     3     1    24 1   
     4     1    25 1   
     5     2     3 1   
     6     2    26 1   
     7     2    27 1   
     8     3     4 1   
     9     3    28 1   
    10     3    29 1   
    11     4     5 1   
    12     4    30 1   
    13     4    31 1   
    14     5     6 1   
    15     5    32 1   
    16     5    33 1   
    17     6     7 1   
    18     6    34 1   
    19     6    35 1   
    20     7     8 1   
    21     7    36 1   
    22     7    37 1   
    23     8     9 2   
    24     8    10 1   
    25    10    11 1   
    26    10    22 1   
    27    11    12 1   
    28    11    38 1   
    29    11    39 1   
    30    12    13 1   
    31    12    14 1   
    32    12    40 1   
    33    13    41 1   
    34    14    15 1   
    35    14    16 1   
    36    14    42 1   
    37    15    43 1   
    38    16    17 1   
    39    16    18 1   
    40    16    44 1   
    41    17    45 1   
    42    18    19 1   
    43    18    20 1   
    44    18    46 1   
    45    19    47 1   
    46    20    21 1   
    47    20    48 1   
    48    20    49 1   
    49    21    50 1   
    50    22    51 1   
    51    22    52 1   
    52    22    53 1   
@<TRIPOS>SUBSTRUCTURE
     1 MG8         1 TEMP              0 ****  ****    0 ROOT
