@<TRIPOS>MOLECULE
MG9
   55    57     1     0     0
SMALL
bcc


@<TRIPOS>ATOM
      1 C13         -5.0240    -0.8260     1.2890 ca         1 MG9       0.050000
      2 C12         -5.2040    -2.1810     1.3370 ca         1 MG9      -0.347300
      3 C11         -5.5070    -2.8680     0.1400 ca         1 MG9       0.731200
      4 N4          -5.6670    -4.2010     0.1330 nv         1 MG9      -0.965500
      5 N3          -5.6220    -2.2330    -1.0300 nb         1 MG9      -0.776000
      6 C10         -5.4420    -0.9230    -1.0620 ca         1 MG9       0.569200
      7 C9          -5.1450    -0.1680     0.0590 ca         1 MG9      -0.495800
      8 S1          -4.9070     1.5640    -0.0500 sy         1 MG9       1.366200
      9 O1          -5.3990     1.9860    -1.3540 o          1 MG9      -0.616800
     10 O2          -5.4570     2.1600     1.1580 o          1 MG9      -0.616800
     11 N2          -3.2960     1.8470    -0.0220 n3         1 MG9      -0.797500
     12 C3          -2.4880     1.7840    -1.2200 c6         1 MG9       0.238800
     13 C2          -1.2820     0.8650    -1.0230 c6         1 MG9       0.290600
     14 C6          -1.6650    -0.5520    -0.9660 c1         1 MG9      -0.204100
     15 C7          -1.9340    -1.7240    -0.9150 c1         1 MG9      -0.092100
     16 C8          -2.2390    -3.1440    -0.8580 c3         1 MG9      -0.016000
     17 C4          -2.5680     2.1960     1.1870 c6         1 MG9       0.229800
     18 C1          -1.3640     1.2900     1.3580 c6         1 MG9       0.189800
     19 N1          -0.5460     1.2920     0.1550 nh         1 MG9      -0.653000
     20 C5           0.8090     1.0120     0.2430 ca         1 MG9       0.200600
     21 C14          1.5830     1.5540     1.2780 ca         1 MG9      -0.189000
     22 C15          2.9430     1.3300     1.3510 ca         1 MG9      -0.058500
     23 C18          1.4810     0.2320    -0.7070 ca         1 MG9      -0.189000
     24 C17          2.8470     0.0180    -0.6310 ca         1 MG9      -0.058500
     25 C16          3.6070     0.5470     0.4080 ca         1 MG9      -0.198300
     26 C19          5.1140     0.3660     0.5310 c3         1 MG9       0.098100
     27 C20          5.5610    -1.0850     0.2070 c3         1 MG9       0.666400
     28 F6           6.8350    -1.2880     0.5340 f          1 MG9      -0.220467
     29 F4           4.8270    -1.9420     0.9220 f          1 MG9      -0.220467
     30 F5           5.4330    -1.4190    -1.0790 f          1 MG9      -0.220467
     31 C21          5.8150     1.3950    -0.3840 c3         1 MG9       0.666400
     32 F3           5.4810     2.6280    -0.0110 f          1 MG9      -0.220467
     33 F1           7.1440     1.3080    -0.3270 f          1 MG9      -0.220467
     34 F2           5.4560     1.2490    -1.6590 f          1 MG9      -0.220467
     35 O3           5.5960     0.6620     1.8020 oh         1 MG9      -0.560800
     36 H1          -4.8000    -0.2820     2.1980 ha         1 MG9       0.146000
     37 H2          -5.1220    -2.7200     2.2720 ha         1 MG9       0.142000
     38 H3          -5.7350    -4.7160     0.9930 hn         1 MG9       0.442300
     39 H4          -5.9900    -4.6550    -0.7040 hn         1 MG9       0.442300
     40 H5          -5.5510    -0.4540    -2.0330 h4         1 MG9       0.042100
     41 H6          -3.0700     1.4370    -2.0700 h1         1 MG9       0.071200
     42 H7          -2.1170     2.7850    -1.4610 h1         1 MG9       0.071200
     43 H8          -0.6500     1.0250    -1.9010 h1         1 MG9       0.084700
     44 H9          -1.3630    -3.7410    -1.1130 hc         1 MG9       0.057700
     45 H10         -2.5640    -3.4350     0.1410 hc         1 MG9       0.057700
     46 H11         -3.0360    -3.4030    -1.5540 hc         1 MG9       0.057700
     47 H12         -2.2390     3.2370     1.1180 h1         1 MG9       0.067700
     48 H13         -3.2120     2.1100     2.0590 h1         1 MG9       0.067700
     49 H14         -0.7920     1.6530     2.2080 h1         1 MG9       0.051200
     50 H15         -1.6920     0.2690     1.5950 h1         1 MG9       0.051200
     51 H16          1.1330     2.1930     2.0250 ha         1 MG9       0.141500
     52 H17          3.4820     1.8030     2.1600 ha         1 MG9       0.143500
     53 H18          0.9510    -0.2390    -1.5220 ha         1 MG9       0.141500
     54 H19          3.2860    -0.5890    -1.4090 ha         1 MG9       0.143500
     55 H20          5.0310     0.2620     2.4750 ho         1 MG9       0.439000
@<TRIPOS>BOND
     1     1     2 ar  
     2     1     7 ar  
     3     1    36 1   
     4     2     3 ar  
     5     2    37 1   
     6     3     4 1   
     7     3     5 ar  
     8     4    38 1   
     9     4    39 1   
    10     5     6 ar  
    11     6     7 ar  
    12     6    40 1   
    13     7     8 1   
    14     8     9 2   
    15     8    10 2   
    16     8    11 1   
    17    11    12 1   
    18    11    17 1   
    19    12    13 1   
    20    12    41 1   
    21    12    42 1   
    22    13    14 1   
    23    13    19 1   
    24    13    43 1   
    25    14    15 3   
    26    15    16 1   
    27    16    44 1   
    28    16    45 1   
    29    16    46 1   
    30    17    18 1   
    31    17    47 1   
    32    17    48 1   
    33    18    19 1   
    34    18    49 1   
    35    18    50 1   
    36    19    20 1   
    37    20    21 ar  
    38    20    23 ar  
    39    21    22 ar  
    40    21    51 1   
    41    22    25 ar  
    42    22    52 1   
    43    23    24 ar  
    44    23    53 1   
    45    24    25 ar  
    46    24    54 1   
    47    25    26 1   
    48    26    27 1   
    49    26    31 1   
    50    26    35 1   
    51    27    28 1   
    52    27    29 1   
    53    27    30 1   
    54    31    32 1   
    55    31    33 1   
    56    31    34 1   
    57    35    55 1   
@<TRIPOS>SUBSTRUCTURE
     1 MG9         1 TEMP              0 ****  ****    0 ROOT
