@<TRIPOS>MOLECULE
MG9
   55    57     1     0     0
SMALL
No Charge or Current Charge


@<TRIPOS>ATOM
      1 C13         -5.6260    -1.2330     0.4620 ca         1 MG9       0.068000
      2 C12         -6.2670    -2.2130    -0.3030 ca         1 MG9      -0.264000
      3 C11         -6.8110    -1.8340    -1.5270 ca         1 MG9       0.665900
      4 N4          -7.4520    -2.6690    -2.3380 nv         1 MG9      -1.075900
      5 N3          -6.7840    -0.6160    -2.0380 nb         1 MG9      -0.776000
      6 C10         -6.1650     0.3380    -1.3070 ca         1 MG9       0.503900
      7 C9          -5.5830     0.0640    -0.0700 ca         1 MG9      -0.430500
      8 S1          -4.7880     1.3770     0.8020 sy         1 MG9       1.224600
      9 O1          -4.7320     2.5830    -0.0270 o          1 MG9      -0.546000
     10 O2          -5.3370     1.3840     2.1610 o          1 MG9      -0.546000
     11 N2          -3.2120     0.7850     0.9500 n3         1 MG9      -0.797500
     12 C3          -2.5490     0.4060    -0.3400 c6         1 MG9       0.238800
     13 C2          -1.1490    -0.2820    -0.1470 c6         1 MG9       0.290600
     14 C6          -1.3090    -1.6690     0.3480 c1         1 MG9      -0.204100
     15 C7          -1.4820    -2.7930     0.7610 c1         1 MG9      -0.092100
     16 C8          -1.7260    -4.1440     1.2740 c3         1 MG9      -0.016000
     17 C4          -2.3060     1.6450     1.7640 c6         1 MG9       0.229800
     18 C1          -0.9100     0.9860     2.0090 c6         1 MG9       0.189800
     19 N1          -0.2560     0.5350     0.7350 nh         1 MG9      -0.791400
     20 C5           1.1400     0.6440     0.5250 ca         1 MG9       0.339000
     21 C14          1.8120     1.8320     0.8500 ca         1 MG9      -0.171000
     22 C15          3.1950     1.9610     0.6410 ca         1 MG9      -0.040500
     23 C18          1.8840    -0.4110    -0.0310 ca         1 MG9      -0.171000
     24 C17          3.2680    -0.2910    -0.2420 ca         1 MG9      -0.040500
     25 C16          3.9570     0.8970     0.1030 ca         1 MG9      -0.198300
     26 C19          5.4880     1.0840    -0.1320 c3         1 MG9       0.121300
     27 C20          6.3090    -0.2750    -0.1870 c3         1 MG9       0.302500
     28 F6           7.6430    -0.0550    -0.1060 f          1 MG9      -0.099167
     29 F4           5.9830    -1.0820     0.8510 f          1 MG9      -0.099167
     30 F5           6.0960    -0.9710    -1.3290 f          1 MG9      -0.099167
     31 C21          5.7150     1.9400    -1.4420 c3         1 MG9       0.302500
     32 F3           5.1570     3.1700    -1.3350 f          1 MG9      -0.099167
     33 F1           7.0300     2.1240    -1.7090 f          1 MG9      -0.099167
     34 F2           5.1580     1.3470    -2.5250 f          1 MG9      -0.099167
     35 O3           5.9850     1.8320     1.0060 oh         1 MG9      -0.623000
     36 H1          -5.1730    -1.4740     1.4240 ha         1 MG9       0.128000
     37 H2          -6.3330    -3.2390     0.0450 ha         1 MG9       0.124000
     38 H3          -7.8740    -3.4840    -1.9080 hn         1 MG9       0.497500
     39 H4          -8.0010    -2.2100    -3.0540 hn         1 MG9       0.497500
     40 H5          -6.1480     1.3370    -1.7430 h4         1 MG9       0.042100
     41 H6          -3.1780    -0.2760    -0.9300 h1         1 MG9       0.071200
     42 H7          -2.3990     1.3020    -0.9600 h1         1 MG9       0.071200
     43 H8          -0.6990    -0.3760    -1.1470 h1         1 MG9       0.084700
     44 H9          -1.2170    -4.8870     0.6490 hc         1 MG9       0.057700
     45 H10         -1.3510    -4.2350     2.3000 hc         1 MG9       0.057700
     46 H11         -2.8000    -4.3630     1.2730 hc         1 MG9       0.057700
     47 H12         -2.1480     2.6120     1.2650 h1         1 MG9       0.067700
     48 H13         -2.7530     1.8620     2.7450 h1         1 MG9       0.067700
     49 H14         -0.2770     1.7020     2.5510 h1         1 MG9       0.051200
     50 H15         -1.0450     0.1210     2.6750 h1         1 MG9       0.051200
     51 H16          1.2590     2.6750     1.2510 ha         1 MG9       0.123500
     52 H17          3.6680     2.9080     0.8970 ha         1 MG9       0.125500
     53 H18          1.3960    -1.3420    -0.2970 ha         1 MG9       0.123500
     54 H19          3.7800    -1.1410    -0.6810 ha         1 MG9       0.125500
     55 H20          5.6420     1.3870     1.8120 ho         1 MG9       0.478000
@<TRIPOS>BOND
     1     1     2 ar  
     2     1     7 ar  
     3     1    36 1   
     4     2     3 ar  
     5     2    37 1   
     6     3     4 1   
     7     3     5 ar  
     8     4    38 1   
     9     4    39 1   
    10     5     6 ar  
    11     6     7 ar  
    12     6    40 1   
    13     7     8 1   
    14     8     9 2   
    15     8    10 2   
    16     8    11 1   
    17    11    12 1   
    18    11    17 1   
    19    12    13 1   
    20    12    41 1   
    21    12    42 1   
    22    13    14 1   
    23    13    19 1   
    24    13    43 1   
    25    14    15 3   
    26    15    16 1   
    27    16    44 1   
    28    16    45 1   
    29    16    46 1   
    30    17    18 1   
    31    17    47 1   
    32    17    48 1   
    33    18    19 1   
    34    18    49 1   
    35    18    50 1   
    36    19    20 1   
    37    20    21 ar  
    38    20    23 ar  
    39    21    22 ar  
    40    21    51 1   
    41    22    25 ar  
    42    22    52 1   
    43    23    24 ar  
    44    23    53 1   
    45    24    25 ar  
    46    24    54 1   
    47    25    26 1   
    48    26    27 1   
    49    26    31 1   
    50    26    35 1   
    51    27    28 1   
    52    27    29 1   
    53    27    30 1   
    54    31    32 1   
    55    31    33 1   
    56    31    34 1   
    57    35    55 1   
@<TRIPOS>SUBSTRUCTURE
     1 MG9         1 TEMP              0 ****  ****    0 ROOT
