@<TRIPOS>MOLECULE
MGB
   25    24     1     0     0
SMALL
No Charge or Current Charge


@<TRIPOS>ATOM
      1 N1         -12.8240    -4.7530     6.2120 nv         1 MGB      -1.076200
      2 N2         -13.2140    -2.6370     5.4640 n2         1 MGB      -0.907100
      3 C3         -13.6030    -3.7480     5.8700 c2         1 MGB       0.840100
      4 N4         -14.9200    -4.0270     6.0630 nu         1 MGB      -0.620500
      5 N5         -15.4590    -5.2040     6.5700 n2         1 MGB      -0.391400
      6 C6         -16.7500    -5.3380     6.7080 ce         1 MGB       0.293900
      7 C7         -17.3660    -6.5830     7.2440 ce         1 MGB       0.289000
      8 C8         -16.4840    -7.7670     7.6560 c3         1 MGB      -0.159400
      9 N9         -18.6700    -6.5960     7.3370 n2         1 MGB      -0.398400
     10 N10        -19.3700    -7.6960     7.8260 nu         1 MGB      -0.616500
     11 C11        -20.7170    -7.8150     7.9600 c2         1 MGB       0.840100
     12 N12        -21.2520    -8.8680     8.3550 n2         1 MGB      -0.909100
     13 N13        -21.3550    -6.7310     7.5720 nv         1 MGB      -1.078200
     14 H11        -13.4530    -5.4710     6.5480 hn         1 MGB       0.478000
     15 H12        -12.1430    -4.4790     6.9060 hn         1 MGB       0.478000
     16 H21        -12.1920    -2.6990     5.3960 hn         1 MGB       0.389400
     17 H41        -15.4900    -3.2260     5.7860 hn         1 MGB       0.510000
     18 H61        -17.4280    -4.5260     6.4300 h4         1 MGB       0.005800
     19 H81        -16.6210    -8.0070     8.7170 hc         1 MGB       0.057033
     20 H82        -16.7340    -8.6620     7.0740 hc         1 MGB       0.057033
     21 H83        -15.4150    -7.5830     7.5090 hc         1 MGB       0.057033
     22 H101       -18.9140    -8.5550     8.1350 hn         1 MGB       0.513000
     23 H121       -22.2630    -8.6860     8.3740 hn         1 MGB       0.389400
     24 H131       -22.0220    -6.9440     6.8440 hn         1 MGB       0.480500
     25 H132       -20.6360    -6.0890     7.2630 hn         1 MGB       0.480500
@<TRIPOS>BOND
     1     1     3 1   
     2     1    14 1   
     3     1    15 1   
     4     2     3 2   
     5     2    16 1   
     6     3     4 1   
     7     4     5 1   
     8     4    17 1   
     9     5     6 2   
    10     6     7 1   
    11     6    18 1   
    12     7     8 1   
    13     7     9 2   
    14     8    19 1   
    15     8    20 1   
    16     8    21 1   
    17     9    10 1   
    18    10    11 1   
    19    10    22 1   
    20    11    12 2   
    21    11    13 1   
    22    12    23 1   
    23    13    24 1   
    24    13    25 1   
@<TRIPOS>SUBSTRUCTURE
     1 MGB         1 TEMP              0 ****  ****    0 ROOT
