@<TRIPOS>MOLECULE
MGB
   25    24     1     0     0
SMALL
abcg2


@<TRIPOS>ATOM
      1 N1         -12.8720    -4.8550     6.2870 nv         1 MGB      -1.076200
      2 N2         -13.3450    -2.6500     5.5160 n2         1 MGB      -0.907100
      3 C3         -13.6910    -3.8100     5.9600 c2         1 MGB       0.840100
      4 N4         -15.0440    -4.0700     6.0780 nu         1 MGB      -0.620500
      5 N5         -15.4970    -5.2230     6.5980 n2         1 MGB      -0.391400
      6 C6         -16.7660    -5.3790     6.7070 ce         1 MGB       0.293900
      7 C7         -17.3370    -6.5930     7.2540 ce         1 MGB       0.289000
      8 C8         -16.4680    -7.7250     7.7130 c3         1 MGB      -0.159400
      9 N9         -18.6300    -6.6050     7.3060 n2         1 MGB      -0.398400
     10 N10        -19.2480    -7.6900     7.8000 nu         1 MGB      -0.616500
     11 C11        -20.6300    -7.7740     7.8380 c2         1 MGB       0.840100
     12 N12        -21.1430    -8.8850     8.2430 n2         1 MGB      -0.909100
     13 N13        -21.2870    -6.6320     7.4840 nv         1 MGB      -1.078200
     14 H11        -13.2750    -5.5930     6.8450 hn         1 MGB       0.478000
     15 H12        -11.9110    -4.6270     6.4810 hn         1 MGB       0.478000
     16 H21        -12.3330    -2.5790     5.4580 hn         1 MGB       0.389400
     17 H41        -15.6810    -3.3280     5.8090 hn         1 MGB       0.510000
     18 H61        -17.4700    -4.6070     6.3920 h4         1 MGB       0.005800
     19 H81        -16.6370    -7.9350     8.7740 hc         1 MGB       0.057033
     20 H82        -16.6960    -8.6380     7.1560 hc         1 MGB       0.057033
     21 H83        -15.4190    -7.4860     7.5700 hc         1 MGB       0.057033
     22 H101       -18.7390    -8.5140     8.0910 hn         1 MGB       0.513000
     23 H121       -22.1570    -8.8280     8.2480 hn         1 MGB       0.389400
     24 H131       -22.2600    -6.7240     7.2400 hn         1 MGB       0.480500
     25 H132       -20.7590    -5.9400     6.9730 hn         1 MGB       0.480500
@<TRIPOS>BOND
     1     1     3 1   
     2     1    14 1   
     3     1    15 1   
     4     2     3 2   
     5     2    16 1   
     6     3     4 1   
     7     4     5 1   
     8     4    17 1   
     9     5     6 2   
    10     6     7 1   
    11     6    18 1   
    12     7     8 1   
    13     7     9 2   
    14     8    19 1   
    15     8    20 1   
    16     8    21 1   
    17     9    10 1   
    18    10    11 1   
    19    10    22 1   
    20    11    12 2   
    21    11    13 1   
    22    12    23 1   
    23    13    24 1   
    24    13    25 1   
@<TRIPOS>SUBSTRUCTURE
     1 MGB         1 TEMP              0 ****  ****    0 ROOT
