@<TRIPOS>MOLECULE
MGC
   33    33     1     0     0
SMALL
No Charge or Current Charge


@<TRIPOS>ATOM
      1 O6          -4.2470     0.9940     0.1650 oh         1 MGC      -0.709000
      2 C6          -3.5290    -0.2550     0.1330 c3         1 MGC       0.167600
      3 C5          -2.0250    -0.0890    -0.2650 c6         1 MGC       0.136300
      4 O5          -1.3800     0.7920     0.6920 os         1 MGC      -0.448000
      5 C1          -0.0160     1.1430     0.3630 c6         1 MGC       0.369300
      6 O1           0.0030     1.9180    -0.8560 os         1 MGC      -0.497000
      7 CM          -0.6330     3.2070    -0.8010 c3         1 MGC       0.147900
      8 C2           0.8720    -0.1350     0.2300 c6         1 MGC       0.097700
      9 N2           2.2570     0.2150    -0.1730 ns         1 MGC      -0.495900
     10 C7           3.4050    -0.3770     0.2960 c          1 MGC       0.608100
     11 O7           3.3960    -1.2270     1.1740 o          1 MGC      -0.598100
     12 C8           4.6900     0.1230    -0.3500 c3         1 MGC      -0.179100
     13 C3           0.2150    -1.1410    -0.7730 c6         1 MGC       0.163300
     14 O3           0.9480    -2.3760    -0.8350 oh         1 MGC      -0.626000
     15 C4          -1.2560    -1.4460    -0.3610 c6         1 MGC       0.109300
     16 O4          -1.2580    -2.1810     0.8870 oh         1 MGC      -0.689000
     17 HO6         -5.1530     0.7950     0.5000 ho         1 MGC       0.505000
     18 H61         -3.9990    -0.9370    -0.5890 h1         1 MGC       0.026200
     19 H62         -3.5770    -0.7370     1.1180 h1         1 MGC       0.026200
     20 H5          -2.0080     0.3920    -1.2550 h1         1 MGC       0.061700
     21 H1           0.3980     1.7570     1.1780 h2         1 MGC       0.083700
     22 HM1         -0.1690     3.8380    -0.0320 h1         1 MGC       0.037367
     23 HM2         -0.5390     3.7200    -1.7660 h1         1 MGC       0.037367
     24 HM3         -1.7020     3.1090    -0.5720 h1         1 MGC       0.037367
     25 H2           0.9020    -0.6060     1.2230 h1         1 MGC       0.125700
     26 HN2          2.3730     0.9170    -0.8950 hn         1 MGC       0.318500
     27 H81          4.6180    -0.0080    -1.4350 hc         1 MGC       0.058367
     28 H82          4.7410     1.2130    -0.2490 hc         1 MGC       0.058367
     29 H83          5.5840    -0.3630     0.0580 hc         1 MGC       0.058367
     30 H3           0.2040    -0.6740    -1.7690 h1         1 MGC       0.040700
     31 HO3          0.6060    -2.8990    -0.0760 ho         1 MGC       0.438000
     32 H4          -1.7200    -2.0530    -1.1530 h1         1 MGC       0.030700
     33 HO4         -2.1630    -2.5490     1.0170 ho         1 MGC       0.499000
@<TRIPOS>BOND
     1     1     2 1   
     2     1    17 1   
     3     2     3 1   
     4     2    18 1   
     5     2    19 1   
     6     3     4 1   
     7     3    15 1   
     8     3    20 1   
     9     4     5 1   
    10     5     6 1   
    11     5     8 1   
    12     5    21 1   
    13     6     7 1   
    14     7    22 1   
    15     7    23 1   
    16     7    24 1   
    17     8     9 1   
    18     8    13 1   
    19     8    25 1   
    20     9    10 1   
    21     9    26 1   
    22    10    11 2   
    23    10    12 1   
    24    12    27 1   
    25    12    28 1   
    26    12    29 1   
    27    13    14 1   
    28    13    15 1   
    29    13    30 1   
    30    14    31 1   
    31    15    16 1   
    32    15    32 1   
    33    16    33 1   
@<TRIPOS>SUBSTRUCTURE
     1 MGC         1 TEMP              0 ****  ****    0 ROOT
