@<TRIPOS>MOLECULE
MGC
   33    33     1     0     0
SMALL
abcg2


@<TRIPOS>ATOM
      1 O6          -4.0970     0.9920     0.1190 oh         1 MGC      -0.709000
      2 C6          -3.4360    -0.2380     0.2990 c3         1 MGC       0.167600
      3 C5          -2.0120    -0.1000    -0.1920 c6         1 MGC       0.136300
      4 O5          -1.3430     0.8070     0.6700 os         1 MGC      -0.448000
      5 C1          -0.0340     1.1150     0.3000 c6         1 MGC       0.369300
      6 O1           0.0340     1.7700    -0.9270 os         1 MGC      -0.497000
      7 CM          -0.5740     3.0460    -0.9410 c3         1 MGC       0.147900
      8 C2           0.8280    -0.1480     0.2030 c6         1 MGC       0.097700
      9 N2           2.1590     0.1810    -0.2370 ns         1 MGC      -0.495900
     10 C7           3.2810    -0.1740     0.4150 c          1 MGC       0.608100
     11 O7           3.2820    -0.7750     1.4810 o          1 MGC      -0.598100
     12 C8           4.5660     0.2470    -0.2530 c3         1 MGC      -0.179100
     13 C3           0.1620    -1.1770    -0.7110 c6         1 MGC       0.163300
     14 O3           0.9540    -2.3330    -0.7080 oh         1 MGC      -0.626000
     15 C4          -1.2710    -1.4350    -0.2400 c6         1 MGC       0.109300
     16 O4          -1.2230    -2.0650     1.0190 oh         1 MGC      -0.689000
     17 HO6         -4.9810     0.9100     0.4880 ho         1 MGC       0.505000
     18 H61         -3.9130    -1.0430    -0.2770 h1         1 MGC       0.026200
     19 H62         -3.4370    -0.5470     1.3510 h1         1 MGC       0.026200
     20 H5          -2.0490     0.2960    -1.2170 h1         1 MGC       0.061700
     21 H1           0.3510     1.7610     1.1010 h2         1 MGC       0.083700
     22 HM1         -0.1810     3.6850    -0.1420 h1         1 MGC       0.037367
     23 HM2         -0.3420     3.5060    -1.8990 h1         1 MGC       0.037367
     24 HM3         -1.6600     2.9870    -0.8350 h1         1 MGC       0.037367
     25 H2           0.9100    -0.5670     1.2070 h1         1 MGC       0.125700
     26 HN2          2.2480     0.6660    -1.1150 hn         1 MGC       0.318500
     27 H81          4.4230     0.7100    -1.2270 hc         1 MGC       0.058367
     28 H82          5.0910     0.9540     0.3910 hc         1 MGC       0.058367
     29 H83          5.2130    -0.6220    -0.3740 hc         1 MGC       0.058367
     30 H3           0.0920    -0.7540    -1.7240 h1         1 MGC       0.040700
     31 HO3          0.6020    -2.9440    -1.3630 ho         1 MGC       0.438000
     32 H4          -1.7700    -2.0740    -0.9830 h1         1 MGC       0.030700
     33 HO4         -2.0370    -2.5580     1.1520 ho         1 MGC       0.499000
@<TRIPOS>BOND
     1     1     2 1   
     2     1    17 1   
     3     2     3 1   
     4     2    18 1   
     5     2    19 1   
     6     3     4 1   
     7     3    15 1   
     8     3    20 1   
     9     4     5 1   
    10     5     6 1   
    11     5     8 1   
    12     5    21 1   
    13     6     7 1   
    14     7    22 1   
    15     7    23 1   
    16     7    24 1   
    17     8     9 1   
    18     8    13 1   
    19     8    25 1   
    20     9    10 1   
    21     9    26 1   
    22    10    11 2   
    23    10    12 1   
    24    12    27 1   
    25    12    28 1   
    26    12    29 1   
    27    13    14 1   
    28    13    15 1   
    29    13    30 1   
    30    14    31 1   
    31    15    16 1   
    32    15    32 1   
    33    16    33 1   
@<TRIPOS>SUBSTRUCTURE
     1 MGC         1 TEMP              0 ****  ****    0 ROOT
