@<TRIPOS>MOLECULE
MGD
   71    76     1     0     0
SMALL
bcc


@<TRIPOS>ATOM
      1 PB          -1.6170     3.4870    -1.6250 p5         1 MGD       1.461800
      2 O1B         -2.0470     4.9080    -1.4440 o          1 MGD      -0.851500
      3 O2B         -2.3420     2.5980    -2.5900 o          1 MGD      -0.851500
      4 O3B         -1.4570     2.7450    -0.1720 os         1 MGD      -0.683800
      5 O3A         -2.2000     1.3980     1.6620 os         1 MGD      -0.541200
      6 PA          -2.5350     2.8950     1.0560 p5         1 MGD       1.459800
      7 O1A         -2.0710     3.9310     2.0300 o          1 MGD      -0.847500
      8 O2A         -3.9310     2.9180     0.5210 o          1 MGD      -0.847500
      9 O5          -0.0010     3.4280    -1.9380 os         1 MGD      -0.533200
     10 C5           0.4330     3.7530    -3.2360 c3         1 MGD       0.194400
     11 C4           1.6860     2.9560    -3.5500 c5         1 MGD       0.133100
     12 O4           1.4520     1.5540    -3.3830 os         1 MGD      -0.358600
     13 C3           2.1230     3.1340    -4.9970 c5         1 MGD       0.074100
     14 O3           3.5090     2.9240    -5.0860 oh         1 MGD      -0.591800
     15 C2           1.3530     1.9980    -5.6740 c5         1 MGD       0.044100
     16 O2           1.8950     1.5530    -6.8810 oh         1 MGD      -0.588800
     17 C1           1.4610     0.8990    -4.6170 c5         1 MGD       0.268800
     18 N9           0.3830    -0.0590    -4.6550 na         1 MGD      -0.202900
     19 C8          -0.9150     0.1280    -4.2390 cc         1 MGD       0.464400
     20 N7          -1.6560    -0.9200    -4.4380 nd         1 MGD      -0.610000
     21 C7          -0.8190    -1.8410    -5.0130 cd         1 MGD       0.168800
     22 C6          -1.0660    -3.1740    -5.4500 c          1 MGD       0.661000
     23 O6          -2.1080    -3.8080    -5.4220 o          1 MGD      -0.622500
     24 N1           0.1020    -3.7480    -5.9680 ns         1 MGD      -0.527400
     25 C15          1.3260    -3.1470    -6.0490 cd         1 MGD       0.692800
     26 N2           2.3370    -3.8880    -6.5290 nv         1 MGD      -0.951800
     27 N3           1.5460    -1.9190    -5.6540 nc         1 MGD      -0.674100
     28 C9           0.4560    -1.3230    -5.1510 cc         1 MGD       0.089800
     29 C10         -2.6070     1.1160     2.9780 c3         1 MGD       0.220400
     30 C11         -2.3460    -0.3620     3.2420 c6         1 MGD       0.183300
     31 O11         -0.9740    -0.5680     3.0430 os         1 MGD      -0.338600
     32 C12         -2.7870    -0.7590     4.6360 c2         1 MGD       0.072400
     33 S12         -4.4670    -0.3500     4.9770 sh         1 MGD      -0.273400
     34 C13         -1.9550    -1.3890     5.4720 c2         1 MGD      -0.047600
     35 S13         -2.3700    -1.6900     7.1610 sh         1 MGD      -0.371400
     36 C14         -0.5830    -1.8190     5.0390 c6         1 MGD       0.196700
     37 N15          0.4200    -0.9100     5.5560 nu         1 MGD      -0.629000
     38 C16          1.7170    -1.2270     5.1090 cc         1 MGD      -0.202200
     39 C17          2.8490    -0.9880     5.9220 c          1 MGD       0.724700
     40 O17          2.8410    -0.5370     7.0680 o          1 MGD      -0.669500
     41 N18          4.0580    -1.3080     5.3050 ns         1 MGD      -0.505400
     42 C19          4.1520    -1.8280     4.0580 cc         1 MGD       0.711800
     43 N19          5.3850    -2.0510     3.5650 nv         1 MGD      -0.933800
     44 N20          3.1020    -2.0720     3.3240 nd         1 MGD      -0.729300
     45 C21          1.8980    -1.7640     3.8540 cd         1 MGD       0.441600
     46 N22          0.8150    -2.0230     3.0740 nu         1 MGD      -0.743000
     47 C23         -0.5150    -1.8130     3.5150 c6         1 MGD       0.449300
     48 H5'1        -0.3420     3.5500    -3.9840 h1         1 MGD       0.010700
     49 H5'2         0.6780     4.8190    -3.3110 h1         1 MGD       0.010700
     50 H4           2.4830     3.2510    -2.8600 h1         1 MGD       0.095700
     51 H3           1.8360     4.1170    -5.3930 h1         1 MGD       0.050700
     52 HO3          3.7130     2.6790    -5.9960 ho         1 MGD       0.400000
     53 H2           0.3020     2.2940    -5.7880 h1         1 MGD       0.076700
     54 HO2          1.5850     2.1270    -7.5900 ho         1 MGD       0.399000
     55 H1           2.3840     0.3260    -4.7640 h2         1 MGD       0.088700
     56 H8          -1.2500     1.0460    -3.7700 h5         1 MGD       0.152100
     57 HN1          0.0120    -4.7000    -6.2990 hn         1 MGD       0.300500
     58 HN21         3.1990    -3.4150    -6.7420 hn         1 MGD       0.429300
     59 HN22         2.1590    -4.7400    -7.0330 hn         1 MGD       0.429300
     60 H101        -3.6740     1.3290     3.1170 h1         1 MGD       0.032700
     61 H102        -2.0530     1.7120     3.7120 h1         1 MGD       0.032700
     62 H11         -2.9370    -0.9590     2.5270 h1         1 MGD       0.066700
     63 H12         -4.6530    -1.2090     5.9890 hs         1 MGD       0.184800
     64 H13         -1.8370    -2.9160     7.2480 hs         1 MGD       0.186800
     65 H14         -0.4220    -2.8600     5.3680 h1         1 MGD       0.006700
     66 H15          0.3790    -0.8400     6.5640 hn         1 MGD       0.394800
     67 H18          4.8980    -1.1350     5.8410 hn         1 MGD       0.312500
     68 H191         5.4450    -2.6050     2.7280 hn         1 MGD       0.429300
     69 H192         6.1740    -2.1160     4.1860 hn         1 MGD       0.429300
     70 H22          0.9740    -2.4660     2.1830 hn         1 MGD       0.457800
     71 H23         -1.1460    -2.6220     3.1240 h2         1 MGD       0.036700
@<TRIPOS>BOND
     1     1     2 1   
     2     1     3 1   
     3     1     4 1   
     4     1     9 1   
     5     4     6 1   
     6     5     6 1   
     7     5    29 1   
     8     6     7 1   
     9     6     8 1   
    10     9    10 1   
    11    10    11 1   
    12    10    48 1   
    13    10    49 1   
    14    11    12 1   
    15    11    13 1   
    16    11    50 1   
    17    12    17 1   
    18    13    14 1   
    19    13    15 1   
    20    13    51 1   
    21    14    52 1   
    22    15    16 1   
    23    15    17 1   
    24    15    53 1   
    25    16    54 1   
    26    17    18 1   
    27    17    55 1   
    28    18    19 1   
    29    18    28 1   
    30    19    20 2   
    31    19    56 1   
    32    20    21 1   
    33    21    22 1   
    34    21    28 2   
    35    22    23 2   
    36    22    24 1   
    37    24    25 1   
    38    24    57 1   
    39    25    26 1   
    40    25    27 2   
    41    26    58 1   
    42    26    59 1   
    43    27    28 1   
    44    29    30 1   
    45    29    60 1   
    46    29    61 1   
    47    30    31 1   
    48    30    32 1   
    49    30    62 1   
    50    31    47 1   
    51    32    33 1   
    52    32    34 2   
    53    33    63 1   
    54    34    35 1   
    55    34    36 1   
    56    35    64 1   
    57    36    37 1   
    58    36    47 1   
    59    36    65 1   
    60    37    38 1   
    61    37    66 1   
    62    38    39 1   
    63    38    45 2   
    64    39    40 2   
    65    39    41 1   
    66    41    42 1   
    67    41    67 1   
    68    42    43 1   
    69    42    44 2   
    70    43    68 1   
    71    43    69 1   
    72    44    45 1   
    73    45    46 1   
    74    46    47 1   
    75    46    70 1   
    76    47    71 1   
@<TRIPOS>SUBSTRUCTURE
     1 MGD         1 TEMP              0 ****  ****    0 ROOT
