@<TRIPOS>MOLECULE
MGD
   71    76     1     0     0
SMALL
No Charge or Current Charge


@<TRIPOS>ATOM
      1 PB          -2.7690     1.9190    -1.2620 p5         1 MGD       1.461800
      2 O1B         -3.8420     2.1640    -0.2530 o          1 MGD      -0.851500
      3 O2B         -3.2060     0.9900    -2.3450 o          1 MGD      -0.851500
      4 O3B         -1.3850     1.5790    -0.5940 os         1 MGD      -0.683800
      5 O3A         -0.0360     0.3290     0.8990 os         1 MGD      -0.564400
      6 PA          -1.3070     0.0960    -0.0660 p5         1 MGD       1.459800
      7 O1A         -2.4850    -0.3670     0.7220 o          1 MGD      -0.847500
      8 O2A         -0.9280    -0.8750    -1.1340 o          1 MGD      -0.847500
      9 O5          -2.3500     3.3470    -1.8910 os         1 MGD      -0.556400
     10 C5          -1.6750     3.4870    -3.1520 c3         1 MGD       0.217600
     11 C4          -0.1960     2.9840    -3.0840 c5         1 MGD       0.156300
     12 O4          -0.1080     1.6170    -3.5770 os         1 MGD      -0.405000
     13 C3           0.7660     3.7890    -4.0220 c5         1 MGD       0.097300
     14 O3           2.1540     3.6080    -3.7050 oh         1 MGD      -0.714000
     15 C2           0.4200     3.1260    -5.3850 c5         1 MGD       0.067300
     16 O2           1.4140     3.4180    -6.3890 oh         1 MGD      -0.711000
     17 C1           0.3740     1.6200    -4.9440 c5         1 MGD       0.321300
     18 N9          -0.4200     0.6960    -5.7540 na         1 MGD      -0.181500
     19 C8          -1.6850     0.9220    -6.2670 cc         1 MGD       0.464400
     20 N7          -2.0960    -0.1010    -7.0180 nd         1 MGD      -0.610000
     21 C7          -1.0500    -1.0170    -6.9940 cd         1 MGD       0.103500
     22 C6          -0.9030    -2.3530    -7.6460 c          1 MGD       0.518500
     23 O6          -1.7390    -2.9030    -8.3510 o          1 MGD      -0.547000
     24 N1           0.3060    -2.9290    -7.3740 ns         1 MGD      -0.460400
     25 C15          1.2490    -2.3480    -6.6030 cd         1 MGD       0.692800
     26 N2           2.3790    -3.0140    -6.4340 nv         1 MGD      -1.062200
     27 N3           1.1790    -1.1810    -6.0060 nc         1 MGD      -0.674100
     28 C9          -0.0190    -0.5300    -6.2250 cc         1 MGD       0.104400
     29 C10         -0.1420     1.0570     2.1380 c3         1 MGD       0.243600
     30 C11         -0.7870     0.2070     3.2910 c6         1 MGD       0.206500
     31 O11          0.0150    -0.9930     3.4360 os         1 MGD      -0.385000
     32 C12         -0.8460     0.9790     4.6220 c2         1 MGD       0.072400
     33 S12         -1.4470     2.6650     4.5000 sh         1 MGD      -0.273400
     34 C13         -0.5440     0.4080     5.8020 c2         1 MGD      -0.047600
     35 S13         -0.6700     1.2500     7.3860 sh         1 MGD      -0.371400
     36 C14         -0.1020    -1.0480     5.9140 c6         1 MGD       0.196700
     37 N15          1.3230    -1.0890     6.3350 nu         1 MGD      -0.684200
     38 C16          2.1640    -2.1130     5.8690 cc         1 MGD      -0.202200
     39 C17          3.5570    -2.1800     6.3570 c          1 MGD       0.582200
     40 O17          4.0660    -1.4030     7.1540 o          1 MGD      -0.594000
     41 N18          4.2410    -3.2090     5.8260 ns         1 MGD      -0.438400
     42 C19          3.7090    -4.0680     4.9450 cc         1 MGD       0.711800
     43 N19          4.5100    -5.0280     4.5160 nv         1 MGD      -1.044200
     44 N20          2.4990    -4.0690     4.4580 nd         1 MGD      -0.729300
     45 C21          1.7140    -3.0530     4.9510 cd         1 MGD       0.441600
     46 N22          0.4670    -3.0410     4.4330 nu         1 MGD      -0.798200
     47 C23         -0.3510    -1.8250     4.5460 c6         1 MGD       0.472500
     48 H5'1        -2.2160     2.9550    -3.9450 h1         1 MGD       0.010700
     49 H5'2        -1.6690     4.5490    -3.4280 h1         1 MGD       0.010700
     50 H4           0.1500     3.0290    -2.0430 h1         1 MGD       0.095700
     51 H3           0.5190     4.8610    -4.0250 h1         1 MGD       0.050700
     52 HO3          2.6040     3.5680    -4.5840 ho         1 MGD       0.499000
     53 H2          -0.5720     3.4550    -5.7280 h1         1 MGD       0.076700
     54 HO2          1.1620     4.2670    -6.8270 ho         1 MGD       0.498000
     55 H1           1.3960     1.2210    -4.9480 h2         1 MGD       0.088700
     56 H8          -2.2460     1.8270    -6.0570 h5         1 MGD       0.152100
     57 HN1          0.4700    -3.8420    -7.7680 hn         1 MGD       0.300500
     58 HN21         3.1240    -2.4630    -6.0270 hn         1 MGD       0.484500
     59 HN22         2.6580    -3.6570    -7.1660 hn         1 MGD       0.484500
     60 H101        -0.7420     1.9620     1.9800 h1         1 MGD       0.032700
     61 H102         0.8540     1.3810     2.4660 h1         1 MGD       0.032700
     62 H11         -1.8100    -0.0780     3.0220 h1         1 MGD       0.066700
     63 H12         -1.3700     2.9330     5.8260 hs         1 MGD       0.184800
     64 H13         -0.3260     0.1900     8.1580 hs         1 MGD       0.186800
     65 H14         -0.7060    -1.5390     6.6910 h1         1 MGD       0.006700
     66 H15          1.7140    -0.3630     6.9420 hn         1 MGD       0.450000
     67 H18          5.2050    -3.3050     6.0980 hn         1 MGD       0.312500
     68 H191         4.0240    -5.7530     4.0020 hn         1 MGD       0.484500
     69 H192         5.2230    -5.3550     5.1550 hn         1 MGD       0.484500
     70 H22          0.3970    -3.5800     3.5780 hn         1 MGD       0.513000
     71 H23         -1.4200    -2.0760     4.4660 h2         1 MGD       0.036700
@<TRIPOS>BOND
     1     1     2 1   
     2     1     3 1   
     3     1     4 1   
     4     1     9 1   
     5     4     6 1   
     6     5     6 1   
     7     5    29 1   
     8     6     7 1   
     9     6     8 1   
    10     9    10 1   
    11    10    11 1   
    12    10    48 1   
    13    10    49 1   
    14    11    12 1   
    15    11    13 1   
    16    11    50 1   
    17    12    17 1   
    18    13    14 1   
    19    13    15 1   
    20    13    51 1   
    21    14    52 1   
    22    15    16 1   
    23    15    17 1   
    24    15    53 1   
    25    16    54 1   
    26    17    18 1   
    27    17    55 1   
    28    18    19 1   
    29    18    28 1   
    30    19    20 2   
    31    19    56 1   
    32    20    21 1   
    33    21    22 1   
    34    21    28 2   
    35    22    23 2   
    36    22    24 1   
    37    24    25 1   
    38    24    57 1   
    39    25    26 1   
    40    25    27 2   
    41    26    58 1   
    42    26    59 1   
    43    27    28 1   
    44    29    30 1   
    45    29    60 1   
    46    29    61 1   
    47    30    31 1   
    48    30    32 1   
    49    30    62 1   
    50    31    47 1   
    51    32    33 1   
    52    32    34 2   
    53    33    63 1   
    54    34    35 1   
    55    34    36 1   
    56    35    64 1   
    57    36    37 1   
    58    36    47 1   
    59    36    65 1   
    60    37    38 1   
    61    37    66 1   
    62    38    39 1   
    63    38    45 2   
    64    39    40 2   
    65    39    41 1   
    66    41    42 1   
    67    41    67 1   
    68    42    43 1   
    69    42    44 2   
    70    43    68 1   
    71    43    69 1   
    72    44    45 1   
    73    45    46 1   
    74    46    47 1   
    75    46    70 1   
    76    47    71 1   
@<TRIPOS>SUBSTRUCTURE
     1 MGD         1 TEMP              0 ****  ****    0 ROOT
