@<TRIPOS>MOLECULE
MGE
  120   120     1     0     0
SMALL
No Charge or Current Charge


@<TRIPOS>ATOM
      1 C1A         -5.2650    -3.8470    -1.6460 c          1 MGE       0.594100
      2 C2A         -5.6650    -2.8820    -0.5270 c3         1 MGE      -0.138400
      3 C3A         -5.9500    -1.4620    -1.0700 c3         1 MGE      -0.067400
      4 C4A         -6.4010    -0.4800     0.0340 c3         1 MGE      -0.076400
      5 C5A         -6.7680     0.9210    -0.5050 c3         1 MGE      -0.074400
      6 C6A         -7.2380     1.8840     0.6080 c3         1 MGE      -0.074400
      7 C7A         -7.6780     3.2660     0.0760 c3         1 MGE      -0.074400
      8 C8A         -8.1670     4.2120     1.1960 c3         1 MGE      -0.074400
      9 C9A         -8.6670     5.5750     0.6690 c3         1 MGE      -0.074400
     10 CAA         -9.1710     6.5070     1.7940 c3         1 MGE      -0.074400
     11 CBA         -9.7120     7.8560     1.2710 c3         1 MGE      -0.075400
     12 CCA        -10.2210     8.7800     2.3980 c3         1 MGE      -0.074400
     13 CDA        -10.7780    10.1190     1.8780 c3         1 MGE      -0.088100
     14 O1A         -6.0690    -4.3640    -2.4110 o          1 MGE      -0.492000
     15 C2B          0.6510    -2.7140    -3.3790 c3         1 MGE      -0.134400
     16 C3B          1.5790    -2.3170    -2.2060 c3         1 MGE      -0.064400
     17 C4B          2.2860    -0.9630    -2.4290 c3         1 MGE      -0.076400
     18 C5B          3.2380    -0.5730    -1.2760 c3         1 MGE      -0.073400
     19 C6B          3.9900     0.7500    -1.5420 c3         1 MGE      -0.074400
     20 C7B          4.9860     1.1250    -0.4220 c3         1 MGE      -0.074400
     21 C8B          5.7710     2.4210    -0.7240 c3         1 MGE      -0.074400
     22 C9B          6.8060     2.7770     0.3660 c3         1 MGE      -0.074400
     23 CAB          7.6020     4.0620     0.0460 c3         1 MGE      -0.074400
     24 CBB          8.6600     4.4040     1.1190 c3         1 MGE      -0.074400
     25 CCB          9.4480     5.6950     0.8010 c3         1 MGE      -0.074400
     26 CDB         10.5150     6.0300     1.8660 c3         1 MGE      -0.074400
     27 CEB         11.2860     7.3340     1.5610 c3         1 MGE      -0.075400
     28 CFB         12.3560     7.6680     2.6230 c3         1 MGE      -0.074400
     29 CGB         13.1140     8.9780     2.3280 c3         1 MGE      -0.088100
     30 O1B          0.6390    -5.1360    -3.5330 o          1 MGE      -0.491000
     31 O1G         -3.9260    -4.1340    -1.6230 os         1 MGE      -0.437100
     32 C1G         -3.4210    -5.0680    -2.6010 c3         1 MGE       0.161600
     33 C2G         -1.9050    -5.2960    -2.3770 c3         1 MGE       0.171300
     34 O2G         -1.2180    -4.0610    -2.7010 os         1 MGE      -0.444100
     35 C3G         -1.5700    -5.7090    -0.9170 c3         1 MGE       0.144600
     36 O3G         -0.2270    -6.2310    -0.8630 os         1 MGE      -0.473000
     37 C1D          0.2180    -6.7240     0.4160 c6         1 MGE       0.357300
     38 C2D          1.6040    -7.4620     0.3110 c6         1 MGE       0.114300
     39 O2D          1.6170    -8.4810    -0.7240 oh         1 MGE      -0.706000
     40 C3D          2.7820    -6.4630     0.0770 c6         1 MGE       0.156300
     41 O3D          2.7770    -5.9800    -1.2780 oh         1 MGE      -0.651000
     42 C4D          2.7150    -5.2620     1.0650 c6         1 MGE       0.141300
     43 O4D          3.7290    -4.3110     0.6960 oh         1 MGE      -0.701000
     44 C5D          1.2900    -4.6260     1.0470 c6         1 MGE       0.168300
     45 C6D          1.1510    -3.4550     2.0760 c3         1 MGE       0.169600
     46 O6D          0.2920    -5.6350     1.3610 os         1 MGE      -0.467000
     47 H2A1        -6.5710    -3.2650    -0.0440 hc         1 MGE       0.074700
     48 H2A2        -4.8470    -2.8110     0.2000 hc         1 MGE       0.074700
     49 H3A1        -5.0490    -1.0710    -1.5600 hc         1 MGE       0.053700
     50 H3A2        -6.7320    -1.5220    -1.8390 hc         1 MGE       0.053700
     51 H4A1        -7.2720    -0.9000     0.5520 hc         1 MGE       0.037200
     52 H4A2        -5.6010    -0.3830     0.7790 hc         1 MGE       0.037200
     53 H5A1        -5.8980     1.3540    -1.0160 hc         1 MGE       0.040200
     54 H5A2        -7.5630     0.8210    -1.2540 hc         1 MGE       0.040200
     55 H6A1        -8.0780     1.4260     1.1460 hc         1 MGE       0.036700
     56 H6A2        -6.4270     2.0180     1.3350 hc         1 MGE       0.036700
     57 H7A1        -6.8400     3.7350    -0.4540 hc         1 MGE       0.037700
     58 H7A2        -8.4840     3.1290    -0.6560 hc         1 MGE       0.037700
     59 H8A1        -8.9790     3.7230     1.7490 hc         1 MGE       0.036700
     60 H8A2        -7.3490     4.3780     1.9090 hc         1 MGE       0.036700
     61 H9A1        -7.8560     6.0720     0.1230 hc         1 MGE       0.037700
     62 H9A2        -9.4800     5.4060    -0.0480 hc         1 MGE       0.037700
     63 H101        -9.9640     5.9970     2.3560 hc         1 MGE       0.036700
     64 H102        -8.3510     6.6960     2.4990 hc         1 MGE       0.036700
     65 H111        -8.9190     8.3700     0.7120 hc         1 MGE       0.036700
     66 H112       -10.5300     7.6650     0.5650 hc         1 MGE       0.036700
     67 H121       -11.0070     8.2650     2.9650 hc         1 MGE       0.036700
     68 H122        -9.4020     8.9840     3.1000 hc         1 MGE       0.036700
     69 H131       -10.0060    10.6770     1.3340 hc         1 MGE       0.031367
     70 H132       -11.6250     9.9510     1.2010 hc         1 MGE       0.031367
     71 H133       -11.1250    10.7390     2.7130 hc         1 MGE       0.031367
     72 H2B1        -0.1640    -1.9830    -3.4110 hc         1 MGE       0.075200
     73 H2B2         1.2240    -2.6990    -4.3130 hc         1 MGE       0.075200
     74 H3B1         2.3370    -3.0980    -2.0670 hc         1 MGE       0.054700
     75 H3B2         0.9910    -2.2700    -1.2800 hc         1 MGE       0.054700
     76 H4B1         1.5310    -0.1760    -2.5550 hc         1 MGE       0.037200
     77 H4B2         2.8580    -1.0090    -3.3640 hc         1 MGE       0.037200
     78 H5B1         3.9700    -1.3770    -1.1270 hc         1 MGE       0.039200
     79 H5B2         2.6640    -0.4850    -0.3450 hc         1 MGE       0.039200
     80 H6B1         3.2610     1.5620    -1.6630 hc         1 MGE       0.036200
     81 H6B2         4.5360     0.6670    -2.4900 hc         1 MGE       0.036200
     82 H7B1         5.6960     0.3000    -0.2820 hc         1 MGE       0.037700
     83 H7B2         4.4410     1.2430     0.5240 hc         1 MGE       0.037700
     84 H8B1         5.0640     3.2530    -0.8360 hc         1 MGE       0.036700
     85 H8B2         6.2900     2.3100    -1.6850 hc         1 MGE       0.036700
     86 H9B1         7.5060     1.9400     0.4840 hc         1 MGE       0.037200
     87 H9B2         6.2900     2.9000     1.3270 hc         1 MGE       0.037200
     88 H201         6.9030     4.9030    -0.0520 hc         1 MGE       0.036700
     89 H202         8.1000     3.9440    -0.9240 hc         1 MGE       0.036700
     90 H211         9.3630     3.5660     1.2100 hc         1 MGE       0.037200
     91 H212         8.1650     4.5140     2.0910 hc         1 MGE       0.037200
     92 H221         8.7450     6.5340     0.7190 hc         1 MGE       0.036700
     93 H222         9.9360     5.5890    -0.1760 hc         1 MGE       0.036700
     94 H231        11.2280     5.1980     1.9360 hc         1 MGE       0.036700
     95 H232        10.0300     6.1210     2.8460 hc         1 MGE       0.036700
     96 H241        10.5740     8.1660     1.4940 hc         1 MGE       0.036700
     97 H242        11.7690     7.2460     0.5790 hc         1 MGE       0.036700
     98 H251        13.0790     6.8440     2.6830 hc         1 MGE       0.036700
     99 H252        11.8790     7.7470     3.6080 hc         1 MGE       0.036700
    100 H261        13.6290     8.9190     1.3620 hc         1 MGE       0.031367
    101 H262        12.4210     9.8280     2.3010 hc         1 MGE       0.031367
    102 H263        13.8620     9.1700     3.1060 hc         1 MGE       0.031367
    103 H1G1        -3.5830    -4.6940    -3.6200 h1         1 MGE       0.059700
    104 H1G2        -3.9370    -6.0330    -2.5110 h1         1 MGE       0.059700
    105 H2G         -1.6060    -6.1080    -3.0540 h1         1 MGE       0.085700
    106 H3G1        -1.6820    -4.8380    -0.2560 h1         1 MGE       0.053700
    107 H3G2        -2.2860    -6.4750    -0.5910 h1         1 MGE       0.053700
    108 H1D         -0.5220    -7.4510     0.7830 h2         1 MGE       0.062700
    109 H2D          1.7790    -7.9400     1.2860 h1         1 MGE       0.049700
    110 H4           0.8940    -9.1210    -0.5230 ho         1 MGE       0.516000
    111 H3D          3.7200    -7.0060     0.2640 h1         1 MGE       0.041700
    112 H3           2.1200    -6.5570    -1.7360 ho         1 MGE       0.480000
    113 H4D          2.9110    -5.6360     2.0810 h1         1 MGE       0.034700
    114 H2           3.8540    -4.4680    -0.2720 ho         1 MGE       0.510000
    115 H5D          1.0840    -4.2200     0.0470 h1         1 MGE       0.089700
    116 H1          -0.1800    -2.2320     2.8580 ho         1 MGE       0.500000
    117 H6D1         1.4260    -3.8390     3.0680 h1         1 MGE       0.032700
    118 H6D2         1.8830    -2.6790     1.8140 h1         1 MGE       0.032700
    119 O5D         -0.1720    -2.8810     2.1180 oh         1 MGE      -0.710000
    120 C1B          0.0680    -4.1150    -3.1770 c          1 MGE       0.611100
@<TRIPOS>BOND
     1     1     2 1   
     2     1    14 2   
     3     1    31 1   
     4     2     3 1   
     5     2    47 1   
     6     2    48 1   
     7     3     4 1   
     8     3    49 1   
     9     3    50 1   
    10     4     5 1   
    11     4    51 1   
    12     4    52 1   
    13     5     6 1   
    14     5    53 1   
    15     5    54 1   
    16     6     7 1   
    17     6    55 1   
    18     6    56 1   
    19     7     8 1   
    20     7    57 1   
    21     7    58 1   
    22     8     9 1   
    23     8    59 1   
    24     8    60 1   
    25     9    10 1   
    26     9    61 1   
    27     9    62 1   
    28    10    11 1   
    29    10    63 1   
    30    10    64 1   
    31    11    12 1   
    32    11    65 1   
    33    11    66 1   
    34    12    13 1   
    35    12    67 1   
    36    12    68 1   
    37    13    69 1   
    38    13    70 1   
    39    13    71 1   
    40    15    16 1   
    41    15    72 1   
    42    15    73 1   
    43    15   120 1   
    44    16    17 1   
    45    16    74 1   
    46    16    75 1   
    47    17    18 1   
    48    17    76 1   
    49    17    77 1   
    50    18    19 1   
    51    18    78 1   
    52    18    79 1   
    53    19    20 1   
    54    19    80 1   
    55    19    81 1   
    56    20    21 1   
    57    20    82 1   
    58    20    83 1   
    59    21    22 1   
    60    21    84 1   
    61    21    85 1   
    62    22    23 1   
    63    22    86 1   
    64    22    87 1   
    65    23    24 1   
    66    23    88 1   
    67    23    89 1   
    68    24    25 1   
    69    24    90 1   
    70    24    91 1   
    71    25    26 1   
    72    25    92 1   
    73    25    93 1   
    74    26    27 1   
    75    26    94 1   
    76    26    95 1   
    77    27    28 1   
    78    27    96 1   
    79    27    97 1   
    80    28    29 1   
    81    28    98 1   
    82    28    99 1   
    83    29   100 1   
    84    29   101 1   
    85    29   102 1   
    86    30   120 2   
    87    31    32 1   
    88    32    33 1   
    89    32   103 1   
    90    32   104 1   
    91    33    34 1   
    92    33    35 1   
    93    33   105 1   
    94    34   120 1   
    95    35    36 1   
    96    35   106 1   
    97    35   107 1   
    98    36    37 1   
    99    37    38 1   
   100    37    46 1   
   101    37   108 1   
   102    38    39 1   
   103    38    40 1   
   104    38   109 1   
   105    39   110 1   
   106    40    41 1   
   107    40    42 1   
   108    40   111 1   
   109    41   112 1   
   110    42    43 1   
   111    42    44 1   
   112    42   113 1   
   113    43   114 1   
   114    44    45 1   
   115    44    46 1   
   116    44   115 1   
   117    45   117 1   
   118    45   118 1   
   119    45   119 1   
   120   116   119 1   
@<TRIPOS>SUBSTRUCTURE
     1 MGE         1 TEMP              0 ****  ****    0 ROOT
