@<TRIPOS>MOLECULE
MGE
  120   120     1     0     0
SMALL
abcg2


@<TRIPOS>ATOM
      1 C1A         -4.4510    -2.1170    -2.4950 c          1 MGE       0.594100
      2 C2A         -4.9620    -1.1460    -1.4670 c3         1 MGE      -0.138400
      3 C3A         -6.3210    -0.5510    -1.7970 c3         1 MGE      -0.067400
      4 C4A         -6.7550     0.4700    -0.7530 c3         1 MGE      -0.076400
      5 C5A         -8.1190     1.0810    -1.0490 c3         1 MGE      -0.074400
      6 C6A         -8.5370     2.1310    -0.0270 c3         1 MGE      -0.074400
      7 C7A         -9.9010     2.7450    -0.3160 c3         1 MGE      -0.074400
      8 C8A        -10.3060     3.8110     0.6950 c3         1 MGE      -0.074400
      9 C9A        -11.6690     4.4270     0.4090 c3         1 MGE      -0.074400
     10 CAA        -12.0660     5.5030     1.4120 c3         1 MGE      -0.074400
     11 CBA        -13.4290     6.1210     1.1250 c3         1 MGE      -0.075400
     12 CCA        -13.8230     7.2050     2.1200 c3         1 MGE      -0.074400
     13 CDA        -15.1860     7.8140     1.8210 c3         1 MGE      -0.088100
     14 O1A         -4.9760    -2.3640    -3.5520 o          1 MGE      -0.492000
     15 C2B          1.4130    -1.9000    -1.5240 c3         1 MGE      -0.134400
     16 C3B          2.9100    -1.8550    -1.7800 c3         1 MGE      -0.064400
     17 C4B          3.5460    -0.6320    -1.1310 c3         1 MGE      -0.076400
     18 C5B          5.0580    -0.5730    -1.3020 c3         1 MGE      -0.073400
     19 C6B          5.6720     0.6850    -0.7030 c3         1 MGE      -0.074400
     20 C7B          7.1900     0.7390    -0.8180 c3         1 MGE      -0.074400
     21 C8B          7.7840     2.0260    -0.2570 c3         1 MGE      -0.074400
     22 C9B          9.3040     2.0840    -0.3450 c3         1 MGE      -0.074400
     23 CAB          9.8850     3.3850     0.1940 c3         1 MGE      -0.074400
     24 CBB         11.4050     3.4490     0.1170 c3         1 MGE      -0.074400
     25 CCB         11.9770     4.7590     0.6440 c3         1 MGE      -0.074400
     26 CDB         13.4970     4.8300     0.5680 c3         1 MGE      -0.074400
     27 CEB         14.0640     6.1440     1.0880 c3         1 MGE      -0.075400
     28 CFB         15.5840     6.2240     1.0050 c3         1 MGE      -0.074400
     29 CGB         16.1360     7.5430     1.5270 c3         1 MGE      -0.088100
     30 O1B          1.2520    -3.9440    -2.7910 o          1 MGE      -0.491000
     31 O1G         -3.3100    -2.6740    -2.1010 os         1 MGE      -0.437100
     32 C1G         -2.6530    -3.5770    -2.9860 c3         1 MGE       0.161600
     33 C2G         -1.4360    -4.1250    -2.2760 c3         1 MGE       0.171300
     34 O2G         -0.5960    -3.0280    -1.9110 os         1 MGE      -0.444100
     35 C3G         -1.7930    -4.8940    -1.0160 c3         1 MGE       0.144600
     36 O3G         -0.5900    -5.3640    -0.4550 os         1 MGE      -0.473000
     37 C1D         -0.6820    -5.8350     0.8510 c6         1 MGE       0.357300
     38 C2D          0.6980    -6.3230     1.3030 c6         1 MGE       0.114300
     39 O2D          1.2920    -7.2110     0.3920 oh         1 MGE      -0.706000
     40 C3D          1.6670    -5.1620     1.5150 c6         1 MGE       0.156300
     41 O3D          2.0610    -4.5420     0.3190 oh         1 MGE      -0.651000
     42 C4D          1.0150    -4.1210     2.4290 c6         1 MGE       0.141300
     43 O4D          1.8020    -2.9650     2.5540 oh         1 MGE      -0.701000
     44 C5D         -0.3520    -3.7130     1.8870 c6         1 MGE       0.168300
     45 C6D         -1.0900    -2.7760     2.8170 c3         1 MGE       0.169600
     46 O6D         -1.1570    -4.8760     1.7470 os         1 MGE      -0.467000
     47 H2A1        -4.9860    -1.6480    -0.4950 hc         1 MGE       0.074700
     48 H2A2        -4.2130    -0.3530    -1.3660 hc         1 MGE       0.074700
     49 H3A1        -6.2900    -0.0730    -2.7790 hc         1 MGE       0.053700
     50 H3A2        -7.0690    -1.3470    -1.8630 hc         1 MGE       0.053700
     51 H4A1        -6.7760    -0.0010     0.2360 hc         1 MGE       0.037200
     52 H4A2        -6.0060     1.2670    -0.6930 hc         1 MGE       0.037200
     53 H5A1        -8.1040     1.5320    -2.0470 hc         1 MGE       0.040200
     54 H5A2        -8.8730     0.2870    -1.0860 hc         1 MGE       0.040200
     55 H6A1        -8.5460     1.6830     0.9730 hc         1 MGE       0.036700
     56 H6A2        -7.7820     2.9250     0.0050 hc         1 MGE       0.036700
     57 H7A1        -9.8950     3.1820    -1.3210 hc         1 MGE       0.037700
     58 H7A2       -10.6590     1.9540    -0.3350 hc         1 MGE       0.037700
     59 H8A1       -10.3090     3.3750     1.7010 hc         1 MGE       0.036700
     60 H8A2        -9.5470     4.6010     0.7120 hc         1 MGE       0.036700
     61 H9A1       -11.6680     4.8550    -0.6000 hc         1 MGE       0.037700
     62 H9A2       -12.4300     3.6380     0.4010 hc         1 MGE       0.037700
     63 H101       -12.0680     5.0760     2.4210 hc         1 MGE       0.036700
     64 H102       -11.3060     6.2910     1.4180 hc         1 MGE       0.036700
     65 H111       -13.4300     6.5410     0.1130 hc         1 MGE       0.036700
     66 H112       -14.1920     5.3340     1.1250 hc         1 MGE       0.036700
     67 H121       -13.8220     6.7850     3.1310 hc         1 MGE       0.036700
     68 H122       -13.0620     7.9910     2.1190 hc         1 MGE       0.036700
     69 H131       -15.2060     8.2610     0.8260 hc         1 MGE       0.031367
     70 H132       -15.9730     7.0580     1.8580 hc         1 MGE       0.031367
     71 H133       -15.4440     8.5940     2.5380 hc         1 MGE       0.031367
     72 H2B1         1.2280    -1.9350    -0.4470 hc         1 MGE       0.075200
     73 H2B2         0.9300    -0.9860    -1.8840 hc         1 MGE       0.075200
     74 H3B1         3.1100    -1.8410    -2.8550 hc         1 MGE       0.054700
     75 H3B2         3.3740    -2.7600    -1.3840 hc         1 MGE       0.054700
     76 H4B1         3.3050    -0.6240    -0.0620 hc         1 MGE       0.037200
     77 H4B2         3.0970     0.2770    -1.5490 hc         1 MGE       0.037200
     78 H5B1         5.3090    -0.6270    -2.3680 hc         1 MGE       0.039200
     79 H5B2         5.5110    -1.4580    -0.8400 hc         1 MGE       0.039200
     80 H6B1         5.3890     0.7600     0.3530 hc         1 MGE       0.036200
     81 H6B2         5.2400     1.5650    -1.1930 hc         1 MGE       0.036200
     82 H7B1         7.4800     0.6350    -1.8700 hc         1 MGE       0.037700
     83 H7B2         7.6260    -0.1210    -0.2980 hc         1 MGE       0.037700
     84 H8B1         7.4790     2.1400     0.7890 hc         1 MGE       0.036700
     85 H8B2         7.3570     2.8820    -0.7910 hc         1 MGE       0.036700
     86 H9B1         9.6130     1.9540    -1.3890 hc         1 MGE       0.037200
     87 H9B2         9.7330     1.2380     0.2030 hc         1 MGE       0.037200
     88 H201         9.5690     3.5190     1.2350 hc         1 MGE       0.036700
     89 H202         9.4570     4.2280    -0.3610 hc         1 MGE       0.036700
     90 H211        11.7220     3.3080    -0.9230 hc         1 MGE       0.037200
     91 H212        11.8340     2.6120     0.6790 hc         1 MGE       0.037200
     92 H221        11.6590     4.9010     1.6830 hc         1 MGE       0.036700
     93 H222        11.5460     5.5950     0.0810 hc         1 MGE       0.036700
     94 H231        13.8150     4.6840    -0.4710 hc         1 MGE       0.036700
     95 H232        13.9290     3.9970     1.1350 hc         1 MGE       0.036700
     96 H241        13.7520     6.2890     2.1290 hc         1 MGE       0.036700
     97 H242        13.6270     6.9760     0.5250 hc         1 MGE       0.036700
     98 H251        15.8960     6.0820    -0.0350 hc         1 MGE       0.036700
     99 H252        16.0210     5.3940     1.5680 hc         1 MGE       0.036700
    100 H261        15.7220     8.3890     0.9750 hc         1 MGE       0.031367
    101 H262        15.8870     7.6860     2.5800 hc         1 MGE       0.031367
    102 H263        17.2220     7.5890     1.4370 hc         1 MGE       0.031367
    103 H1G1        -2.3560    -3.0620    -3.9030 h1         1 MGE       0.059700
    104 H1G2        -3.3100    -4.4050    -3.2630 h1         1 MGE       0.059700
    105 H2G         -0.9210    -4.7850    -2.9780 h1         1 MGE       0.085700
    106 H3G1        -2.3320    -4.2470    -0.3200 h1         1 MGE       0.053700
    107 H3G2        -2.4570    -5.7270    -1.2830 h1         1 MGE       0.053700
    108 H1D         -1.4100    -6.6580     0.9120 h2         1 MGE       0.062700
    109 H2D          0.5440    -6.7990     2.2820 h1         1 MGE       0.049700
    110 H4           0.6920    -7.9460     0.2260 ho         1 MGE       0.516000
    111 H3D          2.5500    -5.5650     2.0390 h1         1 MGE       0.041700
    112 H3           2.0040    -5.1810    -0.3970 ho         1 MGE       0.480000
    113 H4D          0.8580    -4.6010     3.4090 h1         1 MGE       0.034700
    114 H2           2.6290    -3.2020     2.9840 ho         1 MGE       0.510000
    115 H5D         -0.2260    -3.2180     0.9170 h1         1 MGE       0.089700
    116 H1          -2.7220    -1.7390     2.7620 ho         1 MGE       0.500000
    117 H6D1        -1.2480    -3.2770     3.7840 h1         1 MGE       0.032700
    118 H6D2        -0.4560    -1.9050     3.0070 h1         1 MGE       0.032700
    119 O5D         -2.3080    -2.4090     2.2120 oh         1 MGE      -0.710000
    120 C1B          0.7180    -3.0790    -2.1460 c          1 MGE       0.611100
@<TRIPOS>BOND
     1     1     2 1   
     2     1    14 2   
     3     1    31 1   
     4     2     3 1   
     5     2    47 1   
     6     2    48 1   
     7     3     4 1   
     8     3    49 1   
     9     3    50 1   
    10     4     5 1   
    11     4    51 1   
    12     4    52 1   
    13     5     6 1   
    14     5    53 1   
    15     5    54 1   
    16     6     7 1   
    17     6    55 1   
    18     6    56 1   
    19     7     8 1   
    20     7    57 1   
    21     7    58 1   
    22     8     9 1   
    23     8    59 1   
    24     8    60 1   
    25     9    10 1   
    26     9    61 1   
    27     9    62 1   
    28    10    11 1   
    29    10    63 1   
    30    10    64 1   
    31    11    12 1   
    32    11    65 1   
    33    11    66 1   
    34    12    13 1   
    35    12    67 1   
    36    12    68 1   
    37    13    69 1   
    38    13    70 1   
    39    13    71 1   
    40    15    16 1   
    41    15    72 1   
    42    15    73 1   
    43    15   120 1   
    44    16    17 1   
    45    16    74 1   
    46    16    75 1   
    47    17    18 1   
    48    17    76 1   
    49    17    77 1   
    50    18    19 1   
    51    18    78 1   
    52    18    79 1   
    53    19    20 1   
    54    19    80 1   
    55    19    81 1   
    56    20    21 1   
    57    20    82 1   
    58    20    83 1   
    59    21    22 1   
    60    21    84 1   
    61    21    85 1   
    62    22    23 1   
    63    22    86 1   
    64    22    87 1   
    65    23    24 1   
    66    23    88 1   
    67    23    89 1   
    68    24    25 1   
    69    24    90 1   
    70    24    91 1   
    71    25    26 1   
    72    25    92 1   
    73    25    93 1   
    74    26    27 1   
    75    26    94 1   
    76    26    95 1   
    77    27    28 1   
    78    27    96 1   
    79    27    97 1   
    80    28    29 1   
    81    28    98 1   
    82    28    99 1   
    83    29   100 1   
    84    29   101 1   
    85    29   102 1   
    86    30   120 2   
    87    31    32 1   
    88    32    33 1   
    89    32   103 1   
    90    32   104 1   
    91    33    34 1   
    92    33    35 1   
    93    33   105 1   
    94    34   120 1   
    95    35    36 1   
    96    35   106 1   
    97    35   107 1   
    98    36    37 1   
    99    37    38 1   
   100    37    46 1   
   101    37   108 1   
   102    38    39 1   
   103    38    40 1   
   104    38   109 1   
   105    39   110 1   
   106    40    41 1   
   107    40    42 1   
   108    40   111 1   
   109    41   112 1   
   110    42    43 1   
   111    42    44 1   
   112    42   113 1   
   113    43   114 1   
   114    44    45 1   
   115    44    46 1   
   116    44   115 1   
   117    45   117 1   
   118    45   118 1   
   119    45   119 1   
   120   116   119 1   
@<TRIPOS>SUBSTRUCTURE
     1 MGE         1 TEMP              0 ****  ****    0 ROOT
