@<TRIPOS>MOLECULE
MGH
   53    54     1     0     0
SMALL
No Charge or Current Charge


@<TRIPOS>ATOM
      1 C01         -4.1180     4.9310     0.0230 c3         1 MGH       0.154900
      2 O02         -4.2320     3.5240     0.3050 os         1 MGH      -0.446100
      3 C03         -3.5380     2.6460    -0.4920 c          1 MGH       0.587100
      4 O04         -2.8210     2.9880    -1.4260 o          1 MGH      -0.457000
      5 C05         -3.7670     1.1720    -0.0500 c3         1 MGH       0.073700
      6 C06         -5.1700     0.6660    -0.4590 c3         1 MGH      -0.106700
      7 C07         -5.4390    -0.7510    -0.0350 cc         1 MGH       0.243300
      8 C08         -6.0080    -1.1790     1.1310 cd         1 MGH      -0.228000
      9 N09         -6.0290    -2.5620     1.0280 na         1 MGH      -0.302500
     10 C10         -5.4770    -2.9000    -0.1940 cd         1 MGH       0.401400
     11 N11         -5.1170    -1.8020    -0.8460 nc         1 MGH      -0.681000
     12 N12         -2.7080     0.2800    -0.5680 ns         1 MGH      -0.500900
     13 C13         -1.4330     0.2030    -0.0550 c          1 MGH       0.587100
     14 O14         -1.0670     0.9300     0.8610 o          1 MGH      -0.618100
     15 C15         -0.5360    -0.8700    -0.7130 c3         1 MGH       0.045000
     16 N16          0.8670    -0.9220    -0.2080 n          1 MGH      -0.343800
     17 C17          1.1980    -2.0310     0.7400 c3         1 MGH      -0.054000
     18 C18          1.5300    -3.3820     0.0590 c          1 MGH       0.700000
     19 O19          2.6720    -3.5660    -0.3370 o          1 MGH      -0.724000
     20 O20          0.6310    -4.1990    -0.0730 o          1 MGH      -0.724000
     21 C21          1.8220     0.0210    -0.6710 c          1 MGH       0.614100
     22 O22          1.5070     0.8460    -1.5230 o          1 MGH      -0.656100
     23 C23          3.2450     0.0100    -0.0770 c3         1 MGH      -0.148400
     24 C24          4.2310     1.0420    -0.6720 c3         1 MGH      -0.023100
     25 C25          5.6030     0.9580    -0.0170 ca         1 MGH      -0.064300
     26 C26          5.9010     1.7420     1.1150 ca         1 MGH      -0.106500
     27 C27          7.1660     1.6600     1.7220 ca         1 MGH      -0.116000
     28 C28          8.1400     0.7920     1.2030 ca         1 MGH      -0.127000
     29 C29          7.8490     0.0050     0.0760 ca         1 MGH      -0.116000
     30 C30          6.5840     0.0870    -0.5320 ca         1 MGH      -0.106500
     31 H101        -4.4730     5.1570    -0.9910 h1         1 MGH       0.042033
     32 H201        -4.7210     5.5120     0.7320 h1         1 MGH       0.042033
     33 H301        -3.0750     5.2640     0.1100 h1         1 MGH       0.042033
     34 H05         -3.7130     1.1620     1.0460 h1         1 MGH       0.066700
     35 H106        -5.9300     1.3220    -0.0180 hc         1 MGH       0.064200
     36 H206        -5.2830     0.7540    -1.5470 hc         1 MGH       0.064200
     37 H08         -6.3790    -0.6250     1.9860 h4         1 MGH       0.155000
     38 HN09        -6.3820    -3.2240     1.7100 hn         1 MGH       0.349000
     39 H10         -5.3750    -3.9270    -0.5270 h5         1 MGH       0.059100
     40 HN12        -2.9560    -0.3840    -1.2950 hn         1 MGH       0.352500
     41 H115        -1.0210    -1.8410    -0.5550 h1         1 MGH       0.071200
     42 H215        -0.5310    -0.6860    -1.7940 h1         1 MGH       0.071200
     43 H117         2.0360    -1.7560     1.3910 h1         1 MGH       0.037700
     44 H217         0.3360    -2.1920     1.4000 h1         1 MGH       0.037700
     45 H123         3.1530     0.1310     1.0080 hc         1 MGH       0.071700
     46 H223         3.6410    -1.0080    -0.1500 hc         1 MGH       0.071700
     47 H124         4.3190     0.8760    -1.7530 hc         1 MGH       0.057700
     48 H224         3.8180     2.0510    -0.5490 hc         1 MGH       0.057700
     49 H26          5.1500     2.4150     1.5250 ha         1 MGH       0.116000
     50 H27          7.3890     2.2680     2.5960 ha         1 MGH       0.101000
     51 H28          9.1190     0.7280     1.6730 ha         1 MGH       0.098000
     52 H29          8.6030    -0.6680    -0.3270 ha         1 MGH       0.101000
     53 H30          6.3660    -0.5270    -1.4030 ha         1 MGH       0.116000
@<TRIPOS>BOND
     1     1     2 1   
     2     1    31 1   
     3     1    32 1   
     4     1    33 1   
     5     2     3 1   
     6     3     4 2   
     7     3     5 1   
     8     5     6 1   
     9     5    12 1   
    10     5    34 1   
    11     6     7 1   
    12     6    35 1   
    13     6    36 1   
    14     7     8 2   
    15     7    11 1   
    16     8     9 1   
    17     8    37 1   
    18     9    10 1   
    19     9    38 1   
    20    10    11 2   
    21    10    39 1   
    22    12    13 1   
    23    12    40 1   
    24    13    14 2   
    25    13    15 1   
    26    15    16 1   
    27    15    41 1   
    28    15    42 1   
    29    16    17 1   
    30    16    21 1   
    31    17    18 1   
    32    17    43 1   
    33    17    44 1   
    34    18    19 1   
    35    18    20 1   
    36    21    22 2   
    37    21    23 1   
    38    23    24 1   
    39    23    45 1   
    40    23    46 1   
    41    24    25 1   
    42    24    47 1   
    43    24    48 1   
    44    25    26 ar  
    45    25    30 ar  
    46    26    27 ar  
    47    26    49 1   
    48    27    28 ar  
    49    27    50 1   
    50    28    29 ar  
    51    28    51 1   
    52    29    30 ar  
    53    29    52 1   
    54    30    53 1   
@<TRIPOS>SUBSTRUCTURE
     1 MGH         1 TEMP              0 ****  ****    0 ROOT
