@<TRIPOS>MOLECULE
MGH
   53    54     1     0     0
SMALL
bcc


@<TRIPOS>ATOM
      1 C01         -3.1810     4.4760     1.0990 c3         1 MGH       0.131700
      2 O02         -3.5630     3.1000     1.0670 os         1 MGH      -0.422900
      3 C03         -3.0450     2.3460     0.1110 c          1 MGH       0.636100
      4 O04         -2.2880     2.7450    -0.7340 o          1 MGH      -0.506000
      5 C05         -3.6050     0.9330     0.1590 c3         1 MGH       0.073700
      6 C06         -4.7500     0.8280    -0.8640 c3         1 MGH      -0.106700
      7 C07         -5.3490    -0.5360    -0.9120 cc         1 MGH       0.308600
      8 C08         -6.5610    -0.9580    -0.4450 cd         1 MGH      -0.260600
      9 N09         -6.6080    -2.2950    -0.7120 na         1 MGH      -0.302900
     10 C10         -5.4540    -2.6350    -1.3120 cd         1 MGH       0.401400
     11 N11         -4.6690    -1.5970    -1.4520 nc         1 MGH      -0.681000
     12 N12         -2.5720    -0.0200    -0.1540 ns         1 MGH      -0.567900
     13 C13         -1.4530    -0.0800     0.5810 c          1 MGH       0.654100
     14 O14         -1.2000     0.7340     1.4560 o          1 MGH      -0.618100
     15 C15         -0.5510    -1.2680     0.2920 c3         1 MGH       0.045000
     16 N16          0.8150    -0.9990     0.6440 n          1 MGH      -0.410800
     17 C17          1.3620    -1.6690     1.8010 c3         1 MGH      -0.054000
     18 C18          1.9000    -3.0910     1.5170 c          1 MGH       0.910600
     19 O19          2.2730    -3.7170     2.5280 o          1 MGH      -0.829300
     20 O20          1.9190    -3.4690     0.3340 o          1 MGH      -0.829300
     21 C21          1.5350    -0.2480    -0.2100 c          1 MGH       0.681100
     22 O22          1.0180     0.2520    -1.2030 o          1 MGH      -0.656100
     23 C23          2.9980    -0.0300     0.1150 c3         1 MGH      -0.148400
     24 C24          3.7510     0.7060    -0.9900 c3         1 MGH      -0.023100
     25 C25          5.1860     0.9280    -0.5980 ca         1 MGH      -0.064300
     26 C26          5.5670     2.0730     0.0990 ca         1 MGH      -0.124500
     27 C27          6.8850     2.2620     0.4930 ca         1 MGH      -0.134000
     28 C28          7.8460     1.3040     0.1960 ca         1 MGH      -0.145000
     29 C29          7.4790     0.1580    -0.4980 ca         1 MGH      -0.134000
     30 C30          6.1590    -0.0260    -0.8900 ca         1 MGH      -0.124500
     31 H101        -3.4570     4.9890     0.1780 h1         1 MGH       0.042033
     32 H201        -3.7200     4.9160     1.9320 h1         1 MGH       0.042033
     33 H301        -2.1090     4.5840     1.2640 h1         1 MGH       0.042033
     34 H05         -4.0100     0.7440     1.1580 h1         1 MGH       0.066700
     35 H106        -5.5170     1.5570    -0.6020 hc         1 MGH       0.064200
     36 H206        -4.3670     1.1010    -1.8510 hc         1 MGH       0.064200
     37 H08         -7.3690    -0.4330     0.0380 h4         1 MGH       0.173000
     38 HN09        -7.3720    -2.9170    -0.4990 hn         1 MGH       0.298700
     39 H10         -5.2380    -3.6430    -1.6280 h5         1 MGH       0.059100
     40 HN12        -2.7880    -0.7500    -0.8220 hn         1 MGH       0.352500
     41 H115        -0.9100    -2.1050     0.8950 h1         1 MGH       0.071200
     42 H215        -0.6450    -1.5790    -0.7510 h1         1 MGH       0.071200
     43 H117         2.1580    -1.0680     2.2430 h1         1 MGH       0.037700
     44 H217         0.5860    -1.7220     2.5670 h1         1 MGH       0.037700
     45 H123         3.0710     0.5360     1.0500 hc         1 MGH       0.071700
     46 H223         3.4790    -0.9920     0.3120 hc         1 MGH       0.071700
     47 H124         3.7080     0.1250    -1.9130 hc         1 MGH       0.057700
     48 H224         3.2700     1.6630    -1.1940 hc         1 MGH       0.057700
     49 H26          4.8240     2.8270     0.3320 ha         1 MGH       0.134000
     50 H27          7.1630     3.1600     1.0300 ha         1 MGH       0.119000
     51 H28          8.8740     1.4510     0.5010 ha         1 MGH       0.116000
     52 H29          8.2220    -0.5920    -0.7390 ha         1 MGH       0.119000
     53 H30          5.8810    -0.9210    -1.4350 ha         1 MGH       0.134000
@<TRIPOS>BOND
     1     1     2 1   
     2     1    31 1   
     3     1    32 1   
     4     1    33 1   
     5     2     3 1   
     6     3     4 2   
     7     3     5 1   
     8     5     6 1   
     9     5    12 1   
    10     5    34 1   
    11     6     7 1   
    12     6    35 1   
    13     6    36 1   
    14     7     8 2   
    15     7    11 1   
    16     8     9 1   
    17     8    37 1   
    18     9    10 1   
    19     9    38 1   
    20    10    11 2   
    21    10    39 1   
    22    12    13 1   
    23    12    40 1   
    24    13    14 2   
    25    13    15 1   
    26    15    16 1   
    27    15    41 1   
    28    15    42 1   
    29    16    17 1   
    30    16    21 1   
    31    17    18 1   
    32    17    43 1   
    33    17    44 1   
    34    18    19 1   
    35    18    20 1   
    36    21    22 2   
    37    21    23 1   
    38    23    24 1   
    39    23    45 1   
    40    23    46 1   
    41    24    25 1   
    42    24    47 1   
    43    24    48 1   
    44    25    26 ar  
    45    25    30 ar  
    46    26    27 ar  
    47    26    49 1   
    48    27    28 ar  
    49    27    50 1   
    50    28    29 ar  
    51    28    51 1   
    52    29    30 ar  
    53    29    52 1   
    54    30    53 1   
@<TRIPOS>SUBSTRUCTURE
     1 MGH         1 TEMP              0 ****  ****    0 ROOT
