@<TRIPOS>MOLECULE
MGI
   38    39     1     0     0
SMALL
No Charge or Current Charge


@<TRIPOS>ATOM
      1 O2           5.0270    -1.1170    -0.2070 o          1 MGI      -0.548000
      2 C1           4.2120    -0.2590     0.1140 c          1 MGI       0.631700
      3 O1           4.5490     1.0470     0.3420 os         1 MGI      -0.420100
      4 C9           5.9450     1.3990     0.3450 c3         1 MGI       0.153900
      5 C2           2.7290    -0.5110     0.0450 ca         1 MGI      -0.296600
      6 C7           2.2330    -1.4200    -0.9160 ca         1 MGI       0.254100
      7 O3           3.0770    -2.0920    -1.7450 oh         1 MGI      -0.548100
      8 C6           0.8620    -1.6540    -1.0450 ca         1 MGI      -0.224000
      9 C3           1.8090     0.1280     0.9220 ca         1 MGI       0.067700
     10 C8           2.2460     1.0520     2.0560 c3         1 MGI      -0.053800
     11 C4           0.4310    -0.1230     0.7780 ca         1 MGI      -0.251000
     12 C5          -0.0420    -0.9940    -0.2130 ca         1 MGI       0.207100
     13 O4          -1.3870    -1.2520    -0.3510 os         1 MGI      -0.257200
     14 C10         -2.3560    -0.2780    -0.2170 ca         1 MGI       0.047100
     15 C15         -2.1360     1.0330    -0.6880 ca         1 MGI      -0.122000
     16 C11         -3.5920    -0.6150     0.3690 ca         1 MGI       0.039100
     17 O5          -3.8220    -1.8940     0.8150 oh         1 MGI      -0.552100
     18 C12         -4.5930     0.3680     0.4990 ca         1 MGI       0.131100
     19 O6          -5.7870     0.0390     1.0710 oh         1 MGI      -0.532100
     20 C13         -4.3660     1.6770     0.0430 ca         1 MGI      -0.124000
     21 C14         -3.1360     2.0160    -0.5540 ca         1 MGI      -0.058300
     22 C16         -2.8910     3.4290    -1.0590 c3         1 MGI      -0.044800
     23 H91          6.4880     0.8400     1.1170 h1         1 MGI       0.052700
     24 H92          6.4050     1.1850    -0.6290 h1         1 MGI       0.052700
     25 H93          6.0680     2.4700     0.5500 h1         1 MGI       0.052700
     26 H81          2.4850     2.0530     1.6790 hc         1 MGI       0.053033
     27 H82          1.4590     1.1670     2.8100 hc         1 MGI       0.053033
     28 H83          3.1270     0.6600     2.5770 hc         1 MGI       0.053033
     29 H4          -0.2770     0.3570     1.4480 ha         1 MGI       0.134000
     30 H6           0.4980    -2.3500    -1.7950 ha         1 MGI       0.150000
     31 HO3          3.9900    -1.9380    -1.3950 ho         1 MGI       0.523000
     32 H15         -1.1910     1.2890    -1.1610 ha         1 MGI       0.132000
     33 H161        -3.1620     3.5170    -2.1180 hc         1 MGI       0.045700
     34 H162        -3.4830     4.1630    -0.5000 hc         1 MGI       0.045700
     35 H163        -1.8370     3.7120    -0.9580 hc         1 MGI       0.045700
     36 H13         -5.1480     2.4250     0.1480 ha         1 MGI       0.134000
     37 HO6         -5.7180    -0.9140     1.3080 ho         1 MGI       0.485000
     38 HO5         -3.0140    -2.4240     0.6290 ho         1 MGI       0.490000
@<TRIPOS>BOND
     1     1     2 2   
     2     2     3 1   
     3     2     5 1   
     4     3     4 1   
     5     4    23 1   
     6     4    24 1   
     7     4    25 1   
     8     5     6 ar  
     9     5     9 ar  
    10     6     7 1   
    11     6     8 ar  
    12     7    31 1   
    13     8    12 ar  
    14     8    30 1   
    15     9    10 1   
    16     9    11 ar  
    17    10    26 1   
    18    10    27 1   
    19    10    28 1   
    20    11    12 ar  
    21    11    29 1   
    22    12    13 1   
    23    13    14 1   
    24    14    15 ar  
    25    14    16 ar  
    26    15    21 ar  
    27    15    32 1   
    28    16    17 1   
    29    16    18 ar  
    30    17    38 1   
    31    18    19 1   
    32    18    20 ar  
    33    19    37 1   
    34    20    21 ar  
    35    20    36 1   
    36    21    22 1   
    37    22    33 1   
    38    22    34 1   
    39    22    35 1   
@<TRIPOS>SUBSTRUCTURE
     1 MGI         1 TEMP              0 ****  ****    0 ROOT
