@<TRIPOS>MOLECULE
MGI
   38    39     1     0     0
SMALL
abcg2


@<TRIPOS>ATOM
      1 O2           4.9780    -1.0340    -0.4980 o          1 MGI      -0.548000
      2 C1           4.1760    -0.3400     0.1180 c          1 MGI       0.631700
      3 O1           4.5770     0.5440     1.0000 os         1 MGI      -0.420100
      4 C9           5.9820     0.6830     1.2260 c3         1 MGI       0.153900
      5 C2           2.7230    -0.4360    -0.0820 ca         1 MGI      -0.296600
      6 C7           2.2780    -1.3750    -1.0510 ca         1 MGI       0.254100
      7 O3           3.1110    -2.1440    -1.7430 oh         1 MGI      -0.548100
      8 C6           0.9240    -1.5260    -1.3310 ca         1 MGI      -0.224000
      9 C3           1.7550     0.3350     0.6060 ca         1 MGI       0.067700
     10 C8           2.0700     1.3500     1.6710 c3         1 MGI      -0.053800
     11 C4           0.4120     0.1660     0.3100 ca         1 MGI      -0.251000
     12 C5           0.0040    -0.7550    -0.6520 ca         1 MGI       0.207100
     13 O4          -1.2990    -0.9660    -0.9680 os         1 MGI      -0.257200
     14 C10         -2.2520    -0.0780    -0.5210 ca         1 MGI       0.047100
     15 C15         -2.4240     1.1480    -1.1460 ca         1 MGI      -0.122000
     16 C11         -3.0450    -0.4750     0.5440 ca         1 MGI       0.039100
     17 O5          -2.9020    -1.6470     1.2020 oh         1 MGI      -0.552100
     18 C12         -4.0500     0.3940     0.9840 ca         1 MGI       0.131100
     19 O6          -4.8550     0.0640     2.0130 oh         1 MGI      -0.532100
     20 C13         -4.2160     1.6250     0.3680 ca         1 MGI      -0.124000
     21 C14         -3.4130     2.0150    -0.7020 ca         1 MGI      -0.058300
     22 C16         -3.6440     3.3350    -1.3800 c3         1 MGI      -0.044800
     23 H91          6.4200    -0.2460     1.5880 h1         1 MGI       0.052700
     24 H92          6.4990     0.9990     0.3210 h1         1 MGI       0.052700
     25 H93          6.0800     1.4510     1.9860 h1         1 MGI       0.052700
     26 H81          2.6750     2.1720     1.2890 hc         1 MGI       0.053033
     27 H82          1.1440     1.7740     2.0550 hc         1 MGI       0.053033
     28 H83          2.6070     0.9130     2.5110 hc         1 MGI       0.053033
     29 H4          -0.3180     0.7610     0.8420 ha         1 MGI       0.134000
     30 H6           0.6070    -2.2410    -2.0790 ha         1 MGI       0.150000
     31 HO3          4.0290    -1.9250    -1.4520 ho         1 MGI       0.523000
     32 H15         -1.7830     1.4180    -1.9770 ha         1 MGI       0.132000
     33 H161        -4.4160     3.2500    -2.1470 hc         1 MGI       0.045700
     34 H162        -3.9740     4.0950    -0.6720 hc         1 MGI       0.045700
     35 H163        -2.7400     3.6980    -1.8680 hc         1 MGI       0.045700
     36 H13         -4.9940     2.2850     0.7340 ha         1 MGI       0.134000
     37 HO6         -4.6770    -0.8370     2.3090 ho         1 MGI       0.485000
     38 HO5         -2.3480    -2.2600     0.7050 ho         1 MGI       0.490000
@<TRIPOS>BOND
     1     1     2 2   
     2     2     3 1   
     3     2     5 1   
     4     3     4 1   
     5     4    23 1   
     6     4    24 1   
     7     4    25 1   
     8     5     6 ar  
     9     5     9 ar  
    10     6     7 1   
    11     6     8 ar  
    12     7    31 1   
    13     8    12 ar  
    14     8    30 1   
    15     9    10 1   
    16     9    11 ar  
    17    10    26 1   
    18    10    27 1   
    19    10    28 1   
    20    11    12 ar  
    21    11    29 1   
    22    12    13 1   
    23    13    14 1   
    24    14    15 ar  
    25    14    16 ar  
    26    15    21 ar  
    27    15    32 1   
    28    16    17 1   
    29    16    18 ar  
    30    17    38 1   
    31    18    19 1   
    32    18    20 ar  
    33    19    37 1   
    34    20    21 ar  
    35    20    36 1   
    36    21    22 1   
    37    22    33 1   
    38    22    34 1   
    39    22    35 1   
@<TRIPOS>SUBSTRUCTURE
     1 MGI         1 TEMP              0 ****  ****    0 ROOT
