@<TRIPOS>MOLECULE
MGJ
   55    56     1     0     0
SMALL
No Charge or Current Charge


@<TRIPOS>ATOM
      1 C10          5.4500    -3.4720    -1.1690 cc         1 MGJ       0.384400
      2 N12          2.3590    -0.0970     0.0140 ns         1 MGJ      -0.489900
      3 C13          1.6350    -1.2280     0.3340 c          1 MGJ       0.604100
      4 C15          0.2640    -1.3720    -0.3990 c3         1 MGJ       0.122800
      5 C17         -2.1720    -0.9930    -0.5840 c3         1 MGJ       0.199800
      6 C20         -6.0200    -0.5080     0.0370 ca         1 MGJ      -0.058300
      7 C21         -6.6240     0.6660    -0.4550 ca         1 MGJ      -0.106000
      8 C22         -7.7980     1.1620     0.1390 ca         1 MGJ      -0.115500
      9 C24         -7.7750    -0.6820     1.7250 ca         1 MGJ      -0.115500
     10 C26         -0.6900     0.8920     0.1620 c3         1 MGJ       0.020800
     11 C03          3.7710     1.6640     1.0980 c          1 MGJ       0.573100
     12 N02          4.9310     1.9740     1.7770 ns         1 MGJ      -0.519900
     13 C01          5.1950     3.2660     2.4130 c3         1 MGJ       0.099300
     14 C05          3.7170     0.2230     0.5080 c3         1 MGJ       0.039700
     15 C06          4.7600     0.0170    -0.6200 c3         1 MGJ      -0.100700
     16 C07          4.8270    -1.4060    -1.1060 cd         1 MGJ       0.250300
     17 C08          4.1570    -1.9570    -2.1680 cc         1 MGJ      -0.220000
     18 N09          4.5580    -3.2770    -2.1960 na         1 MGJ      -0.303500
     19 N11          5.6330    -2.3450    -0.4970 nd         1 MGJ      -0.675000
     20 O14          2.0530    -2.0610     1.1320 o          1 MGJ      -0.607100
     21 N16         -0.9210    -0.6010     0.1190 n3         1 MGJ      -0.720600
     22 C27         -0.4180     1.6540    -1.1840 c          1 MGJ       0.695000
     23 O28         -1.3280     2.3010    -1.6850 o          1 MGJ      -0.744500
     24 O29          0.6960     1.5640    -1.6850 o          1 MGJ      -0.744500
     25 C18         -3.4770    -0.4620     0.0540 c3         1 MGJ      -0.075400
     26 C19         -4.7460    -1.0440    -0.6030 c3         1 MGJ      -0.036100
     27 C23         -8.3740     0.4880     1.2280 ca         1 MGJ      -0.126000
     28 C25         -6.6020    -1.1790     1.1310 ca         1 MGJ      -0.106000
     29 H10          5.9200    -4.4290    -0.9730 h5         1 MGJ       0.048100
     30 HN12         1.9000     0.5630    -0.6160 hn         1 MGJ       0.322500
     31 H15          0.4420    -1.1170    -1.4520 h1         1 MGJ       0.044700
     32 H15A         0.0310    -2.4450    -0.3820 h1         1 MGJ       0.044700
     33 H17         -2.1330    -0.6630    -1.6310 h1         1 MGJ       0.021200
     34 H17A        -2.2410    -2.0890    -0.5990 h1         1 MGJ       0.021200
     35 H21         -6.1820     1.1950    -1.2970 ha         1 MGJ       0.114000
     36 H22         -8.2590     2.0690    -0.2450 ha         1 MGJ       0.101500
     37 H24         -8.2200    -1.2040     2.5690 ha         1 MGJ       0.101500
     38 H26         -1.5430     1.3890     0.6410 h1         1 MGJ       0.045700
     39 H26A         0.1620     1.1110     0.8180 h1         1 MGJ       0.045700
     40 HN02         5.6410     1.2520     1.8340 hn         1 MGJ       0.310500
     41 H01          4.4360     3.4610     3.1820 h1         1 MGJ       0.033367
     42 H01A         6.1880     3.2490     2.8790 h1         1 MGJ       0.033367
     43 H01B         5.1630     4.0620     1.6570 h1         1 MGJ       0.033367
     44 H05          3.9690    -0.4540     1.3350 h1         1 MGJ       0.084700
     45 H06          4.5200     0.6840    -1.4570 hc         1 MGJ       0.057200
     46 H06A         5.7510     0.3210    -0.2630 hc         1 MGJ       0.057200
     47 H08          3.4540    -1.5220    -2.8680 h4         1 MGJ       0.162000
     48 HN09         4.2630    -3.9930    -2.8510 hn         1 MGJ       0.347000
     49 H18         -3.4800    -0.7090     1.1230 hc         1 MGJ       0.057200
     50 H18A        -3.5130     0.6300    -0.0270 hc         1 MGJ       0.057200
     51 H19         -4.7210    -2.1380    -0.5310 hc         1 MGJ       0.039700
     52 H19A        -4.7360    -0.8080    -1.6750 hc         1 MGJ       0.039700
     53 H23         -9.2820     0.8720     1.6880 ha         1 MGJ       0.098000
     54 H25         -6.1430    -2.0840     1.5230 ha         1 MGJ       0.114000
     55 O04          2.8590     2.4740     0.9900 o          1 MGJ      -0.558100
@<TRIPOS>BOND
     1     1    18 1   
     2     1    19 2   
     3     1    29 1   
     4     2     3 1   
     5     2    14 1   
     6     2    30 1   
     7     3     4 1   
     8     3    20 2   
     9     4    21 1   
    10     4    31 1   
    11     4    32 1   
    12     5    21 1   
    13     5    25 1   
    14     5    33 1   
    15     5    34 1   
    16     6     7 ar  
    17     6    26 1   
    18     6    28 ar  
    19     7     8 ar  
    20     7    35 1   
    21     8    27 ar  
    22     8    36 1   
    23     9    27 ar  
    24     9    28 ar  
    25     9    37 1   
    26    10    21 1   
    27    10    22 1   
    28    10    38 1   
    29    10    39 1   
    30    11    12 1   
    31    11    14 1   
    32    11    55 2   
    33    12    13 1   
    34    12    40 1   
    35    13    41 1   
    36    13    42 1   
    37    13    43 1   
    38    14    15 1   
    39    14    44 1   
    40    15    16 1   
    41    15    45 1   
    42    15    46 1   
    43    16    17 2   
    44    16    19 1   
    45    17    18 1   
    46    17    47 1   
    47    18    48 1   
    48    22    23 1   
    49    22    24 1   
    50    25    26 1   
    51    25    49 1   
    52    25    50 1   
    53    26    51 1   
    54    26    52 1   
    55    27    53 1   
    56    28    54 1   
@<TRIPOS>SUBSTRUCTURE
     1 MGJ         1 TEMP              0 ****  ****    0 ROOT
