@<TRIPOS>MOLECULE
MGJ
   55    56     1     0     0
SMALL
abcg2


@<TRIPOS>ATOM
      1 C10          5.7540    -3.5030    -1.2060 cc         1 MGJ       0.384400
      2 N12          2.5720    -0.4930    -0.3470 ns         1 MGJ      -0.489900
      3 C13          1.4300    -0.7380     0.3190 c          1 MGJ       0.604100
      4 C15          0.2180    -0.9820    -0.5660 c3         1 MGJ       0.122800
      5 C17         -2.1780    -0.9260    -0.5440 c3         1 MGJ       0.199800
      6 C20         -5.9360    -0.5500     0.2510 ca         1 MGJ      -0.058300
      7 C21         -6.6560     0.4130    -0.4520 ca         1 MGJ      -0.106000
      8 C22         -7.7880     1.0010     0.0960 ca         1 MGJ      -0.115500
      9 C24         -7.5110    -0.3250     2.0760 ca         1 MGJ      -0.115500
     10 C26         -0.8990     1.1110    -0.0660 c3         1 MGJ       0.020800
     11 C03          3.5860     1.2920     0.9640 c          1 MGJ       0.573100
     12 N02          4.3930     1.5480     2.0080 ns         1 MGJ      -0.519900
     13 C01          4.4010     2.8260     2.6790 c3         1 MGJ       0.099300
     14 C05          3.7680    -0.0980     0.3410 c3         1 MGJ       0.039700
     15 C06          4.9520    -0.0830    -0.6350 c3         1 MGJ      -0.100700
     16 C07          5.2290    -1.4330    -1.2000 cd         1 MGJ       0.250300
     17 C08          5.1290    -1.8510    -2.4970 cc         1 MGJ      -0.220000
     18 N09          5.4690    -3.1730    -2.4790 na         1 MGJ      -0.303500
     19 N11          5.6200    -2.4770    -0.4050 nd         1 MGJ      -0.675000
     20 O14          1.3860    -0.8010     1.5370 o          1 MGJ      -0.607100
     21 N16         -0.9540    -0.3390    -0.0310 n3         1 MGJ      -0.720600
     22 C27         -1.0720     1.8370    -1.4170 c          1 MGJ       0.695000
     23 O28         -1.3200     3.0580    -1.3320 o          1 MGJ      -0.744500
     24 O29         -0.9230     1.1850    -2.4690 o          1 MGJ      -0.744500
     25 C18         -3.4340    -0.3650     0.1070 c3         1 MGJ      -0.075400
     26 C19         -4.6800    -1.1410    -0.3240 c3         1 MGJ      -0.036100
     27 C23         -8.2190     0.6340     1.3640 ca         1 MGJ      -0.126000
     28 C25         -6.3800    -0.9100     1.5220 ca         1 MGJ      -0.106000
     29 H10          6.0570    -4.4980    -0.9190 h5         1 MGJ       0.048100
     30 HN12         2.5120    -0.2930    -1.3330 hn         1 MGJ       0.322500
     31 H15          0.4310    -0.7010    -1.6040 h1         1 MGJ       0.044700
     32 H15A         0.0480    -2.0650    -0.5660 h1         1 MGJ       0.044700
     33 H17         -2.2710    -0.8190    -1.6340 h1         1 MGJ       0.021200
     34 H17A        -2.1330    -2.0020    -0.3410 h1         1 MGJ       0.021200
     35 H21         -6.3300     0.7050    -1.4440 ha         1 MGJ       0.114000
     36 H22         -8.3340     1.7460    -0.4690 ha         1 MGJ       0.101500
     37 H24         -7.8390    -0.6200     3.0640 ha         1 MGJ       0.101500
     38 H26         -1.6360     1.5100     0.6370 h1         1 MGJ       0.045700
     39 H26A         0.0680     1.4320     0.3400 h1         1 MGJ       0.045700
     40 HN02         4.9530     0.8070     2.3920 hn         1 MGJ       0.310500
     41 H01          3.4710     3.0100     3.2190 h1         1 MGJ       0.033367
     42 H01A         5.2210     2.8370     3.3910 h1         1 MGJ       0.033367
     43 H01B         4.5500     3.6390     1.9690 h1         1 MGJ       0.033367
     44 H05          3.9820    -0.8290     1.1270 h1         1 MGJ       0.084700
     45 H06          4.7550     0.6300    -1.4410 hc         1 MGJ       0.057200
     46 H06A         5.8320     0.2880    -0.1050 hc         1 MGJ       0.057200
     47 H08          4.8530    -1.3350    -3.4010 h4         1 MGJ       0.162000
     48 HN09         5.5130    -3.7870    -3.2750 hn         1 MGJ       0.347000
     49 H18         -3.3340    -0.4040     1.1960 hc         1 MGJ       0.057200
     50 H18A        -3.5690     0.6870    -0.1580 hc         1 MGJ       0.057200
     51 H19         -4.5800    -2.1860    -0.0170 hc         1 MGJ       0.039700
     52 H19A        -4.7420    -1.1440    -1.4150 hc         1 MGJ       0.039700
     53 H23         -9.1010     1.0910     1.7940 ha         1 MGJ       0.098000
     54 H25         -5.8350    -1.6580     2.0860 ha         1 MGJ       0.114000
     55 O04          2.8090     2.1070     0.5060 o          1 MGJ      -0.558100
@<TRIPOS>BOND
     1     1    18 1   
     2     1    19 2   
     3     1    29 1   
     4     2     3 1   
     5     2    14 1   
     6     2    30 1   
     7     3     4 1   
     8     3    20 2   
     9     4    21 1   
    10     4    31 1   
    11     4    32 1   
    12     5    21 1   
    13     5    25 1   
    14     5    33 1   
    15     5    34 1   
    16     6     7 ar  
    17     6    26 1   
    18     6    28 ar  
    19     7     8 ar  
    20     7    35 1   
    21     8    27 ar  
    22     8    36 1   
    23     9    27 ar  
    24     9    28 ar  
    25     9    37 1   
    26    10    21 1   
    27    10    22 1   
    28    10    38 1   
    29    10    39 1   
    30    11    12 1   
    31    11    14 1   
    32    11    55 2   
    33    12    13 1   
    34    12    40 1   
    35    13    41 1   
    36    13    42 1   
    37    13    43 1   
    38    14    15 1   
    39    14    44 1   
    40    15    16 1   
    41    15    45 1   
    42    15    46 1   
    43    16    17 2   
    44    16    19 1   
    45    17    18 1   
    46    17    47 1   
    47    18    48 1   
    48    22    23 1   
    49    22    24 1   
    50    25    26 1   
    51    25    49 1   
    52    25    50 1   
    53    26    51 1   
    54    26    52 1   
    55    27    53 1   
    56    28    54 1   
@<TRIPOS>SUBSTRUCTURE
     1 MGJ         1 TEMP              0 ****  ****    0 ROOT
