@<TRIPOS>MOLECULE
MGK
   54    55     1     0     0
SMALL
No Charge or Current Charge


@<TRIPOS>ATOM
      1 C10         -4.9550     3.5880    -1.3920 cc         1 MGK       0.383400
      2 N12         -2.3390     0.0490    -0.0040 ns         1 MGK      -0.503900
      3 C13         -1.6260     1.1910     0.2990 c          1 MGK       0.606100
      4 C15         -0.2460     1.3230    -0.4180 c3         1 MGK       0.125800
      5 C17          2.1950     0.9480    -0.5630 c3         1 MGK       0.198800
      6 C20          6.0370     0.5020     0.1180 ca         1 MGK      -0.059300
      7 C21          6.6520    -0.6830    -0.3300 ca         1 MGK      -0.106500
      8 C22          7.8210    -1.1550     0.2930 ca         1 MGK      -0.115000
      9 C24          7.7700     0.7370     1.8200 ca         1 MGK      -0.115000
     10 C26          0.7110    -0.9190     0.2260 c3         1 MGK       0.019800
     11 O29          1.3690    -2.3730    -1.5780 o          1 MGK      -0.741500
     12 C27          0.4500    -1.7240    -1.0960 c          1 MGK       0.694000
     13 O28         -0.6650    -1.6640    -1.5980 o          1 MGK      -0.741500
     14 N16          0.9370     0.5730     0.1370 n3         1 MGK      -0.722600
     15 C18          3.4940     0.4440     0.1070 c3         1 MGK      -0.074400
     16 C19          4.7680     1.0110    -0.5540 c3         1 MGK      -0.036100
     17 C25          6.6020     1.2090     1.1980 ca         1 MGK      -0.106500
     18 C23          8.3800    -0.4450     1.3680 ca         1 MGK      -0.126000
     19 O14         -2.0570     2.0380     1.0750 o          1 MGK      -0.606100
     20 C05         -3.7060    -0.2590     0.4720 c3         1 MGK       0.069700
     21 C03         -3.7930    -1.7040     1.0340 c          1 MGK       0.562100
     22 O04         -2.9120    -2.5480     0.9150 o          1 MGK      -0.434000
     23 O02         -4.9520    -1.9010     1.7450 os         1 MGK      -0.458100
     24 C01         -5.1670    -3.1910     2.3490 c3         1 MGK       0.153900
     25 C06         -4.7560    -0.0150    -0.6410 c3         1 MGK      -0.014100
     26 C07         -4.7170     1.3830    -1.2070 cc         1 MGK      -0.199300
     27 N11         -5.1770     2.5140    -0.5660 na         1 MGK      -0.297500
     28 N09         -4.3870     3.1940    -2.5220 nd         1 MGK      -0.675000
     29 C08         -4.2350     1.8250    -2.4140 cd         1 MGK       0.238900
     30 H10         -5.2250     4.6020    -1.1200 h5         1 MGK       0.048100
     31 HN12        -1.8720    -0.6190    -0.6200 hn         1 MGK       0.335500
     32 H15         -0.4080     1.0380    -1.4660 h1         1 MGK       0.048700
     33 H15A        -0.0210     2.3980    -0.4270 h1         1 MGK       0.048700
     34 H17          2.1690     0.5850    -1.6000 h1         1 MGK       0.023700
     35 H17A         2.2590     2.0430    -0.6130 h1         1 MGK       0.023700
     36 H21          6.2230    -1.2400    -1.1610 ha         1 MGK       0.114500
     37 H22          8.2910    -2.0710    -0.0580 ha         1 MGK       0.102000
     38 H24          8.2020     1.2870     2.6540 ha         1 MGK       0.102000
     39 H26         -0.1440    -1.1190     0.8840 h1         1 MGK       0.043700
     40 H26A         1.5620    -1.3960     0.7270 h1         1 MGK       0.043700
     41 H18          3.4830     0.7250     1.1660 hc         1 MGK       0.056200
     42 H18A         3.5360    -0.6500     0.0600 hc         1 MGK       0.056200
     43 H19          4.7370     2.1070    -0.5160 hc         1 MGK       0.040700
     44 H19A         4.7720     0.7420    -1.6180 hc         1 MGK       0.040700
     45 H25          6.1340     2.1230     1.5560 ha         1 MGK       0.114500
     46 H23          9.2840    -0.8100     1.8500 ha         1 MGK       0.099000
     47 H05         -3.9470     0.4030     1.3130 h1         1 MGK       0.075700
     48 H01         -5.1830    -3.9820     1.5880 h1         1 MGK       0.044033
     49 H01A        -4.3740    -3.4200     3.0740 h1         1 MGK       0.044033
     50 H01B        -6.1270    -3.2080     2.8790 h1         1 MGK       0.044033
     51 H06         -4.5930    -0.7410    -1.4470 hc         1 MGK       0.068200
     52 H06A        -5.7580    -0.2190    -0.2430 hc         1 MGK       0.068200
     53 H08         -3.7850     1.2360    -3.2050 h4         1 MGK       0.042100
     54 HN11        -5.5970     2.5680     0.3540 hn         1 MGK       0.350000
@<TRIPOS>BOND
     1     1    27 1   
     2     1    28 2   
     3     1    30 1   
     4     2     3 1   
     5     2    20 1   
     6     2    31 1   
     7     3     4 1   
     8     3    19 2   
     9     4    14 1   
    10     4    32 1   
    11     4    33 1   
    12     5    14 1   
    13     5    15 1   
    14     5    34 1   
    15     5    35 1   
    16     6     7 ar  
    17     6    16 1   
    18     6    17 ar  
    19     7     8 ar  
    20     7    36 1   
    21     8    18 ar  
    22     8    37 1   
    23     9    17 ar  
    24     9    18 ar  
    25     9    38 1   
    26    10    12 1   
    27    10    14 1   
    28    10    39 1   
    29    10    40 1   
    30    11    12 1   
    31    12    13 1   
    32    15    16 1   
    33    15    41 1   
    34    15    42 1   
    35    16    43 1   
    36    16    44 1   
    37    17    45 1   
    38    18    46 1   
    39    20    21 1   
    40    20    25 1   
    41    20    47 1   
    42    21    22 2   
    43    21    23 1   
    44    23    24 1   
    45    24    48 1   
    46    24    49 1   
    47    24    50 1   
    48    25    26 1   
    49    25    51 1   
    50    25    52 1   
    51    26    27 1   
    52    26    29 2   
    53    27    54 1   
    54    28    29 1   
    55    29    53 1   
@<TRIPOS>SUBSTRUCTURE
     1 MGK         1 TEMP              0 ****  ****    0 ROOT
