@<TRIPOS>MOLECULE
MGK
   54    55     1     0     0
SMALL
abcg2


@<TRIPOS>ATOM
      1 C10         -5.5070     3.5030    -1.5820 cc         1 MGK       0.383400
      2 N12         -2.5420     0.3830    -0.3100 ns         1 MGK      -0.503900
      3 C13         -1.3930     0.6000     0.3570 c          1 MGK       0.606100
      4 C15         -0.1900     0.8810    -0.5260 c3         1 MGK       0.125800
      5 C17          2.2110     0.8580    -0.5230 c3         1 MGK       0.198800
      6 C20          5.9720     0.5860     0.3000 ca         1 MGK      -0.059300
      7 C21          6.7360    -0.3410    -0.4060 ca         1 MGK      -0.106500
      8 C22          7.8850    -0.8900     0.1470 ca         1 MGK      -0.115000
      9 C24          7.5380     0.4040     2.1380 ca         1 MGK      -0.115000
     10 C26          0.9590    -1.2040    -0.0810 c3         1 MGK       0.019800
     11 O29          1.2380    -3.1440    -1.3910 o          1 MGK      -0.741500
     12 C27          1.0770    -1.9080    -1.4520 c          1 MGK       0.694000
     13 O28          0.9790    -1.2230    -2.4900 o          1 MGK      -0.741500
     14 N16          0.9960     0.2440    -0.0160 n3         1 MGK      -0.722600
     15 C18          3.4780     0.3210     0.1280 c3         1 MGK      -0.074400
     16 C19          4.7020     1.1400    -0.2820 c3         1 MGK      -0.036100
     17 C25          6.3900     0.9490     1.5800 ca         1 MGK      -0.106500
     18 C23          8.2910    -0.5190     1.4230 ca         1 MGK      -0.126000
     19 O14         -1.3460     0.6060     1.5770 o          1 MGK      -0.606100
     20 C05         -3.7580     0.0700     0.3810 c3         1 MGK       0.069700
     21 C03         -3.6530    -1.2910     1.0590 c          1 MGK       0.562100
     22 O04         -2.9000    -2.1640     0.7190 o          1 MGK      -0.434000
     23 O02         -4.5320    -1.3990     2.0400 os         1 MGK      -0.458100
     24 C01         -4.6080    -2.6520     2.7240 c3         1 MGK       0.153900
     25 C06         -4.9400     0.0590    -0.6050 c3         1 MGK      -0.014100
     26 C07         -5.1100     1.3630    -1.2970 cc         1 MGK      -0.199300
     27 N11         -5.4800     2.5160    -0.6630 na         1 MGK      -0.297500
     28 N09         -5.1770     3.0630    -2.7680 nd         1 MGK      -0.675000
     29 C08         -4.9260     1.7300    -2.6020 cd         1 MGK       0.238900
     30 H10         -5.7760     4.5160    -1.3290 h5         1 MGK       0.048100
     31 HN12        -2.5140     0.2800    -1.3120 hn         1 MGK       0.335500
     32 H15         -0.4090     0.6230    -1.5700 h1         1 MGK       0.048700
     33 H15A        -0.0440     1.9670    -0.5010 h1         1 MGK       0.048700
     34 H17          2.3060     0.7640    -1.6130 h1         1 MGK       0.023700
     35 H17A         2.1460     1.9310    -0.3110 h1         1 MGK       0.023700
     36 H21          6.4300    -0.6340    -1.4040 ha         1 MGK       0.114500
     37 H22          8.4660    -1.6060    -0.4210 ha         1 MGK       0.102000
     38 H24          7.8460     0.7010     3.1320 ha         1 MGK       0.102000
     39 H26          0.0200    -1.5460     0.3710 h1         1 MGK       0.043700
     40 H26A         1.7340    -1.6070     0.5760 h1         1 MGK       0.043700
     41 H18          3.3680     0.3410     1.2160 hc         1 MGK       0.056200
     42 H18A         3.6430    -0.7230    -0.1540 hc         1 MGK       0.056200
     43 H19          4.5670     2.1780     0.0370 hc         1 MGK       0.040700
     44 H19A         4.7760     1.1560    -1.3730 hc         1 MGK       0.040700
     45 H25          5.8090     1.6700     2.1450 ha         1 MGK       0.114500
     46 H23          9.1880    -0.9440     1.8550 ha         1 MGK       0.099000
     47 H05         -3.9480     0.8220     1.1520 h1         1 MGK       0.075700
     48 H01         -4.8610    -3.4620     2.0410 h1         1 MGK       0.044033
     49 H01A        -3.6690    -2.8830     3.2270 h1         1 MGK       0.044033
     50 H01B        -5.3950    -2.5420     3.4630 h1         1 MGK       0.044033
     51 H06         -4.7810    -0.7170    -1.3570 hc         1 MGK       0.068200
     52 H06A        -5.8480    -0.2100    -0.0610 hc         1 MGK       0.068200
     53 H08         -4.6280     1.0940    -3.4230 h4         1 MGK       0.042100
     54 HN11        -5.7070     2.6180     0.3140 hn         1 MGK       0.350000
@<TRIPOS>BOND
     1     1    27 1   
     2     1    28 2   
     3     1    30 1   
     4     2     3 1   
     5     2    20 1   
     6     2    31 1   
     7     3     4 1   
     8     3    19 2   
     9     4    14 1   
    10     4    32 1   
    11     4    33 1   
    12     5    14 1   
    13     5    15 1   
    14     5    34 1   
    15     5    35 1   
    16     6     7 ar  
    17     6    16 1   
    18     6    17 ar  
    19     7     8 ar  
    20     7    36 1   
    21     8    18 ar  
    22     8    37 1   
    23     9    17 ar  
    24     9    18 ar  
    25     9    38 1   
    26    10    12 1   
    27    10    14 1   
    28    10    39 1   
    29    10    40 1   
    30    11    12 1   
    31    12    13 1   
    32    15    16 1   
    33    15    41 1   
    34    15    42 1   
    35    16    43 1   
    36    16    44 1   
    37    17    45 1   
    38    18    46 1   
    39    20    21 1   
    40    20    25 1   
    41    20    47 1   
    42    21    22 2   
    43    21    23 1   
    44    23    24 1   
    45    24    48 1   
    46    24    49 1   
    47    24    50 1   
    48    25    26 1   
    49    25    51 1   
    50    25    52 1   
    51    26    27 1   
    52    26    29 2   
    53    27    54 1   
    54    28    29 1   
    55    29    53 1   
@<TRIPOS>SUBSTRUCTURE
     1 MGK         1 TEMP              0 ****  ****    0 ROOT
