@<TRIPOS>MOLECULE
MGL
   27    27     1     0     0
SMALL
abcg2


@<TRIPOS>ATOM
      1 C1          72.6340   107.5360    40.1020 c6         1 MGL       0.399300
      2 C2          72.0730   106.6020    41.1670 c6         1 MGL       0.154300
      3 C3          73.1700   105.6320    41.5880 c6         1 MGL       0.133300
      4 C4          73.7520   104.9060    40.3830 c6         1 MGL       0.115300
      5 C5          74.1920   105.9340    39.3340 c6         1 MGL       0.109300
      6 C6          74.6190   105.2940    38.0150 c3         1 MGL       0.151600
      7 O1          71.6340   108.3640    39.6520 os         1 MGL      -0.419000
      8 O2          71.6310   107.3830    42.2470 oh         1 MGL      -0.705000
      9 O3          72.6070   104.7470    42.5290 oh         1 MGL      -0.662000
     10 O4          74.8200   104.1170    40.8460 oh         1 MGL      -0.731000
     11 O5          73.1090   106.7790    39.0150 os         1 MGL      -0.486000
     12 O6          75.6920   104.3890    38.1720 oh         1 MGL      -0.721000
     13 H1          73.4700   108.1210    40.5320 h2         1 MGL       0.030700
     14 H2          71.2460   106.0280    40.7190 h1         1 MGL       0.069700
     15 H3          73.9820   106.2210    42.0460 h1         1 MGL       0.045700
     16 H4          72.9610   104.2830    39.9320 h1         1 MGL       0.061700
     17 H5          75.0310   106.5200    39.7460 h1         1 MGL       0.040700
     18 H61         74.8600   106.0820    37.2930 h1         1 MGL       0.064700
     19 H62         73.7810   104.7220    37.6090 h1         1 MGL       0.064700
     20 H71         72.4460   109.1510    37.8920 h1         1 MGL       0.035367
     21 H72         72.8660   110.0210    39.3800 h1         1 MGL       0.035367
     22 H73         71.2220   110.1180    38.7280 h1         1 MGL       0.035367
     23 HO2         71.4150   106.7860    42.9720 ho         1 MGL       0.523000
     24 HO3         73.3190   104.2730    42.9690 ho         1 MGL       0.466000
     25 HO4         75.2760   103.7620    40.0720 ho         1 MGL       0.531000
     26 HO6         76.4990   104.8930    38.3210 ho         1 MGL       0.507000
     27 C7          72.0750   109.4580    38.8730 c3         1 MGL       0.149900
@<TRIPOS>BOND
     1     1     2 1   
     2     1     7 1   
     3     1    11 1   
     4     1    13 1   
     5     2     3 1   
     6     2     8 1   
     7     2    14 1   
     8     3     4 1   
     9     3     9 1   
    10     3    15 1   
    11     4     5 1   
    12     4    10 1   
    13     4    16 1   
    14     5     6 1   
    15     5    11 1   
    16     5    17 1   
    17     6    12 1   
    18     6    18 1   
    19     6    19 1   
    20     7    27 1   
    21     8    23 1   
    22     9    24 1   
    23    10    25 1   
    24    12    26 1   
    25    20    27 1   
    26    21    27 1   
    27    22    27 1   
@<TRIPOS>SUBSTRUCTURE
     1 MGL         1 TEMP              0 ****  ****    0 ROOT
