@<TRIPOS>MOLECULE
MGL
   27    27     1     0     0
SMALL
No Charge or Current Charge


@<TRIPOS>ATOM
      1 C1          72.5900   107.6110    40.1590 c6         1 MGL       0.399300
      2 C2          72.0050   106.6270    41.2340 c6         1 MGL       0.154300
      3 C3          73.1300   105.6540    41.6910 c6         1 MGL       0.133300
      4 C4          73.7400   104.9270    40.4580 c6         1 MGL       0.115300
      5 C5          74.2330   105.9870    39.4240 c6         1 MGL       0.109300
      6 C6          74.7930   105.3380    38.1200 c3         1 MGL       0.151600
      7 O1          71.5720   108.4940    39.6530 os         1 MGL      -0.419000
      8 O2          71.4400   107.2980    42.3870 oh         1 MGL      -0.705000
      9 O3          72.6290   104.6930    42.6370 oh         1 MGL      -0.662000
     10 O4          74.8210   104.0650    40.8510 oh         1 MGL      -0.731000
     11 O5          73.1360   106.8540    39.0530 os         1 MGL      -0.486000
     12 O6          75.8800   104.4240    38.3920 oh         1 MGL      -0.721000
     13 H1          73.3890   108.2110    40.6200 h2         1 MGL       0.030700
     14 H2          71.2240   106.0310    40.7370 h1         1 MGL       0.069700
     15 H3          73.9290   106.2500    42.1600 h1         1 MGL       0.045700
     16 H4          72.9470   104.3330    39.9760 h1         1 MGL       0.061700
     17 H5          75.0280   106.6010    39.8720 h1         1 MGL       0.040700
     18 H61         75.1280   106.1470    37.4560 h1         1 MGL       0.064700
     19 H62         73.9700   104.8140    37.6130 h1         1 MGL       0.064700
     20 H71         72.4770   109.1230    37.8670 h1         1 MGL       0.035367
     21 H72         72.7610   110.1780    39.2740 h1         1 MGL       0.035367
     22 H73         71.1750   110.1700    38.4710 h1         1 MGL       0.035367
     23 HO2         71.4070   106.6020    43.0880 ho         1 MGL       0.523000
     24 HO3         73.2880   103.9590    42.6180 ho         1 MGL       0.466000
     25 HO4         75.3940   104.0140    40.0310 ho         1 MGL       0.531000
     26 HO6         76.2750   104.1780    37.5200 ho         1 MGL       0.507000
     27 C7          72.0200   109.5400    38.7740 c3         1 MGL       0.149900
@<TRIPOS>BOND
     1     1     2 1   
     2     1     7 1   
     3     1    11 1   
     4     1    13 1   
     5     2     3 1   
     6     2     8 1   
     7     2    14 1   
     8     3     4 1   
     9     3     9 1   
    10     3    15 1   
    11     4     5 1   
    12     4    10 1   
    13     4    16 1   
    14     5     6 1   
    15     5    11 1   
    16     5    17 1   
    17     6    12 1   
    18     6    18 1   
    19     6    19 1   
    20     7    27 1   
    21     8    23 1   
    22     9    24 1   
    23    10    25 1   
    24    12    26 1   
    25    20    27 1   
    26    21    27 1   
    27    22    27 1   
@<TRIPOS>SUBSTRUCTURE
     1 MGL         1 TEMP              0 ****  ****    0 ROOT
