@<TRIPOS>MOLECULE
MGN
   22    21     1     0     0
SMALL
bcc


@<TRIPOS>ATOM
      1 N           25.4320    21.5490    -7.0080 n8         1 MGN      -0.849800
      2 CA          25.9340    20.3600    -7.7110 c3         1 MGN       0.025200
      3 CB1         27.3450    20.0420    -7.1870 c3         1 MGN      -0.042400
      4 CB2         25.9550    20.5700    -9.2250 c3         1 MGN      -0.089100
      5 CG          28.3920    21.1310    -7.4320 c3         1 MGN      -0.158400
      6 CD          29.7230    20.7500    -6.8210 c          1 MGN       0.668100
      7 OE1         29.8500    20.5520    -5.6200 o          1 MGN      -0.614100
      8 NE2         30.7470    20.6370    -7.6840 nt         1 MGN      -0.691000
      9 C           25.0110    19.1570    -7.3170 c          1 MGN       0.934600
     10 O           24.4330    18.5500    -8.2400 o          1 MGN      -0.822300
     11 OXT         24.9320    18.9000    -6.1000 o          1 MGN      -0.822300
     12 H           24.4580    21.6930    -7.2520 hn         1 MGN       0.303800
     13 H2          25.9070    22.3710    -7.3640 hn         1 MGN       0.303800
     14 HB11        27.2730    19.8540    -6.1160 hc         1 MGN       0.061700
     15 HB12        27.6880    19.1130    -7.6540 hc         1 MGN       0.061700
     16 HB21        26.3860    19.7210    -9.7580 hc         1 MGN       0.013367
     17 HB22        24.9470    20.7230    -9.6110 hc         1 MGN       0.013367
     18 HB23        26.5390    21.4540    -9.4920 hc         1 MGN       0.013367
     19 HG1         28.5020    21.3340    -8.4990 hc         1 MGN       0.045200
     20 HG2         28.0800    22.0660    -6.9580 hc         1 MGN       0.045200
     21 HN21        30.6330    20.7890    -8.6700 hn         1 MGN       0.298500
     22 HN22        31.6620    20.3730    -7.3570 hn         1 MGN       0.298500
@<TRIPOS>BOND
     1     1     2 1   
     2     1    12 1   
     3     1    13 1   
     4     2     3 1   
     5     2     4 1   
     6     2     9 1   
     7     3     5 1   
     8     3    14 1   
     9     3    15 1   
    10     4    16 1   
    11     4    17 1   
    12     4    18 1   
    13     5     6 1   
    14     5    19 1   
    15     5    20 1   
    16     6     7 2   
    17     6     8 1   
    18     8    21 1   
    19     8    22 1   
    20     9    10 1   
    21     9    11 1   
@<TRIPOS>SUBSTRUCTURE
     1 MGN         1 TEMP              0 ****  ****    0 ROOT
