@<TRIPOS>MOLECULE
MGN
   22    21     1     0     0
SMALL
No Charge or Current Charge


@<TRIPOS>ATOM
      1 N           25.3990    21.6210    -7.1120 n8         1 MGN      -0.849800
      2 CA          25.9320    20.3430    -7.7130 c3         1 MGN       0.025200
      3 CB1         27.3820    20.1220    -7.1530 c3         1 MGN      -0.042400
      4 CB2         25.9660    20.5490    -9.2530 c3         1 MGN      -0.089100
      5 CG          28.4060    21.2760    -7.3710 c3         1 MGN      -0.158400
      6 CD          29.7590    20.9320    -6.7430 c          1 MGN       0.668100
      7 OE1         30.0150    21.0920    -5.5620 o          1 MGN      -0.614100
      8 NE2         30.6930    20.4270    -7.5770 nt         1 MGN      -0.691000
      9 C           25.0240    19.0440    -7.4200 c          1 MGN       0.934600
     10 O           23.8010    19.1700    -7.4360 o          1 MGN      -0.822300
     11 OXT         25.5530    17.9860    -7.0860 o          1 MGN      -0.822300
     12 H           24.4000    21.6920    -7.3320 hn         1 MGN       0.303800
     13 H2          25.8300    22.4180    -7.5860 hn         1 MGN       0.303800
     14 HB11        27.3110    19.9210    -6.0760 hc         1 MGN       0.061700
     15 HB12        27.8020    19.2130    -7.6040 hc         1 MGN       0.061700
     16 HB21        26.4590    19.7010    -9.7440 hc         1 MGN       0.013367
     17 HB22        24.9490    20.6240    -9.6570 hc         1 MGN       0.013367
     18 HB23        26.5000    21.4640    -9.5320 hc         1 MGN       0.013367
     19 HG1         28.5390    21.4170    -8.4490 hc         1 MGN       0.045200
     20 HG2         28.0290    22.1940    -6.9060 hc         1 MGN       0.045200
     21 HN21        30.4770    20.2960    -8.5540 hn         1 MGN       0.298500
     22 HN22        31.6020    20.1850    -7.2110 hn         1 MGN       0.298500
@<TRIPOS>BOND
     1     1     2 1   
     2     1    12 1   
     3     1    13 1   
     4     2     3 1   
     5     2     4 1   
     6     2     9 1   
     7     3     5 1   
     8     3    14 1   
     9     3    15 1   
    10     4    16 1   
    11     4    17 1   
    12     4    18 1   
    13     5     6 1   
    14     5    19 1   
    15     5    20 1   
    16     6     7 2   
    17     6     8 1   
    18     8    21 1   
    19     8    22 1   
    20     9    10 1   
    21     9    11 1   
@<TRIPOS>SUBSTRUCTURE
     1 MGN         1 TEMP              0 ****  ****    0 ROOT
