@<TRIPOS>MOLECULE
MGR
   50    52     1     0     0
SMALL
No Charge or Current Charge


@<TRIPOS>ATOM
      1 C1           0.0530     0.7880    -0.0140 ce         1 MGR       0.297600
      2 C2          -0.0360     2.2820    -0.0230 ca         1 MGR      -0.153800
      3 C3           0.8570     3.0440     0.7610 ca         1 MGR      -0.063000
      4 C4           0.7940     4.4480     0.7510 ca         1 MGR      -0.115000
      5 C5          -0.1560     5.1060    -0.0490 ca         1 MGR      -0.057000
      6 C6          -1.0390     4.3560    -0.8430 ca         1 MGR      -0.115000
      7 C7          -0.9780     2.9520    -0.8340 ca         1 MGR      -0.063000
      8 C8           1.2620     0.1370     0.0810 cd         1 MGR      -0.223000
      9 C9           2.1820     0.1950    -1.0220 cd         1 MGR      -0.042000
     10 C10          3.3890    -0.4640    -0.9100 cc         1 MGR      -0.382100
     11 C11          3.7340    -1.1970     0.2750 cc         1 MGR       0.429900
     12 C12          2.7950    -1.2360     1.3580 cc         1 MGR      -0.382100
     13 C13          1.5800    -0.5890     1.2810 cd         1 MGR      -0.042000
     14 C14         -1.2340     0.0340    -0.1120 ca         1 MGR      -0.234800
     15 C15         -2.4010     0.5010     0.5240 ca         1 MGR       0.026000
     16 C16         -3.5970    -0.2300     0.4330 ca         1 MGR      -0.227500
     17 C17         -3.6500    -1.4390    -0.2820 ca         1 MGR       0.422000
     18 C18         -2.4800    -1.9080    -0.9020 ca         1 MGR      -0.227500
     19 C19         -1.2800    -1.1840    -0.8170 ca         1 MGR       0.026000
     20 C22          6.1200    -1.4730    -0.4560 c3         1 MGR       0.044900
     21 C23          5.1690    -2.9810     1.3050 c3         1 MGR       0.044900
     22 C24         -6.1790    -1.4950    -0.3440 c3         1 MGR       0.193100
     23 C25         -4.8610    -3.6510    -0.4930 c3         1 MGR       0.193100
     24 N2           4.9570    -1.8560     0.3700 nh         1 MGR      -0.301200
     25 N3          -4.8600    -2.1720    -0.3700 nh         1 MGR      -0.762900
     26 H31          1.5980     2.5480     1.3840 ha         1 MGR       0.127000
     27 H41          1.4820     5.0270     1.3620 ha         1 MGR       0.134000
     28 H51         -0.2030     6.1930    -0.0570 ha         1 MGR       0.134000
     29 H61         -1.7700     4.8640    -1.4690 ha         1 MGR       0.134000
     30 H71         -1.6600     2.3870    -1.4670 ha         1 MGR       0.127000
     31 H91          1.9320     0.7460    -1.9280 ha         1 MGR       0.198500
     32 H101         4.0860    -0.4390    -1.7390 ha         1 MGR       0.203750
     33 H121         3.0520    -1.7760     2.2630 ha         1 MGR       0.203750
     34 H131         0.8760    -0.6250     2.1120 ha         1 MGR       0.198500
     35 H151        -2.3850     1.4250     1.1000 ha         1 MGR       0.130500
     36 H161        -4.4810     0.1450     0.9390 ha         1 MGR       0.135750
     37 H181        -2.4940    -2.8350    -1.4660 ha         1 MGR       0.135750
     38 H191        -0.3880    -1.5690    -1.3080 ha         1 MGR       0.130500
     39 H221         7.0570    -1.8110     0.0040 h1         1 MGR       0.060033
     40 H222         6.0410    -1.9230    -1.4540 h1         1 MGR       0.060033
     41 H223         6.1730    -0.3820    -0.5630 h1         1 MGR       0.060033
     42 H231         6.0140    -3.6040     0.9840 h1         1 MGR       0.060033
     43 H232         5.3800    -2.6030     2.3130 h1         1 MGR       0.060033
     44 H233         4.2770    -3.6200     1.3450 h1         1 MGR       0.060033
     45 H241        -6.1240    -0.5170    -0.8410 h1         1 MGR       0.060033
     46 H242        -6.9360    -2.0890    -0.8740 h1         1 MGR       0.060033
     47 H243        -6.5180    -1.3460     0.6900 h1         1 MGR       0.060033
     48 H251        -4.0270    -4.0890     0.0720 h1         1 MGR       0.060033
     49 H252        -5.7900    -4.0770    -0.0910 h1         1 MGR       0.060033
     50 H253        -4.7690    -3.9520    -1.5460 h1         1 MGR       0.060033
@<TRIPOS>BOND
     1     1     2 1   
     2     1     8 2   
     3     1    14 1   
     4     2     3 ar  
     5     2     7 ar  
     6     3     4 ar  
     7     3    26 1   
     8     4     5 ar  
     9     4    27 1   
    10     5     6 ar  
    11     5    28 1   
    12     6     7 ar  
    13     6    29 1   
    14     7    30 1   
    15     8     9 1   
    16     8    13 1   
    17     9    10 2   
    18     9    31 1   
    19    10    11 1   
    20    10    32 1   
    21    11    12 1   
    22    11    24 2   
    23    12    13 2   
    24    12    33 1   
    25    13    34 1   
    26    14    15 ar  
    27    14    19 ar  
    28    15    16 ar  
    29    15    35 1   
    30    16    17 ar  
    31    16    36 1   
    32    17    18 ar  
    33    17    25 1   
    34    18    19 ar  
    35    18    37 1   
    36    19    38 1   
    37    20    24 1   
    38    20    39 1   
    39    20    40 1   
    40    20    41 1   
    41    21    24 1   
    42    21    42 1   
    43    21    43 1   
    44    21    44 1   
    45    22    25 1   
    46    22    45 1   
    47    22    46 1   
    48    22    47 1   
    49    23    25 1   
    50    23    48 1   
    51    23    49 1   
    52    23    50 1   
@<TRIPOS>SUBSTRUCTURE
     1 MGR         1 TEMP              0 ****  ****    0 ROOT
