@<TRIPOS>MOLECULE
MGR
   50    52     1     0     0
SMALL
abcg2


@<TRIPOS>ATOM
      1 C1          -0.0160     0.7330    -0.0940 ce         1 MGR       0.297600
      2 C2          -0.0490     2.1940    -0.2010 ca         1 MGR      -0.153800
      3 C3           0.7350     2.9830     0.6480 ca         1 MGR      -0.063000
      4 C4           0.6950     4.3640     0.5540 ca         1 MGR      -0.115000
      5 C5          -0.1070     4.9730    -0.4030 ca         1 MGR      -0.057000
      6 C6          -0.8800     4.1990    -1.2600 ca         1 MGR      -0.115000
      7 C7          -0.8620     2.8180    -1.1530 ca         1 MGR      -0.063000
      8 C8           1.2390     0.0870     0.0410 cd         1 MGR      -0.223000
      9 C9           2.4240     0.6640    -0.4790 cd         1 MGR      -0.042000
     10 C10          3.6360     0.0450    -0.3790 cc         1 MGR      -0.382100
     11 C11          3.7680    -1.2020     0.2920 cc         1 MGR       0.429900
     12 C12          2.5910    -1.7690     0.8520 cc         1 MGR      -0.382100
     13 C13          1.3810    -1.1510     0.7160 cd         1 MGR      -0.042000
     14 C14         -1.2390     0.0150    -0.1270 ca         1 MGR      -0.234800
     15 C15         -2.4520     0.6050     0.3100 ca         1 MGR       0.026000
     16 C16         -3.6300    -0.0840     0.3160 ca         1 MGR      -0.227500
     17 C17         -3.6970    -1.4240    -0.1560 ca         1 MGR       0.422000
     18 C18         -2.4940    -2.0060    -0.6400 ca         1 MGR      -0.227500
     19 C19         -1.3180    -1.3140    -0.6110 ca         1 MGR       0.026000
     20 C22          6.1500    -1.1970    -0.1450 c3         1 MGR       0.044900
     21 C23          5.0630    -3.1010     1.0570 c3         1 MGR       0.044900
     22 C24         -6.0740    -1.4810     0.3090 c3         1 MGR       0.193100
     23 C25         -4.8880    -3.4860    -0.6010 c3         1 MGR       0.193100
     24 N2           4.9550    -1.8110     0.4020 nh         1 MGR      -0.301200
     25 N3          -4.8480    -2.1060    -0.1530 nh         1 MGR      -0.762900
     26 H31          1.3510     2.5110     1.4020 ha         1 MGR       0.127000
     27 H41          1.2890     4.9660     1.2290 ha         1 MGR       0.134000
     28 H51         -0.1300     6.0520    -0.4820 ha         1 MGR       0.134000
     29 H61         -1.4940     4.6720    -2.0140 ha         1 MGR       0.134000
     30 H71         -1.4520     2.2160    -1.8320 ha         1 MGR       0.127000
     31 H91          2.3680     1.5970    -1.0230 ha         1 MGR       0.198500
     32 H101         4.4940     0.5170    -0.8350 ha         1 MGR       0.203750
     33 H121         2.6390    -2.6870     1.4200 ha         1 MGR       0.203750
     34 H131         0.5210    -1.5950     1.2000 ha         1 MGR       0.198500
     35 H151        -2.4440     1.6110     0.7060 ha         1 MGR       0.130500
     36 H161        -4.5120     0.4060     0.7000 ha         1 MGR       0.135750
     37 H181        -2.4980    -2.9990    -1.0650 ha         1 MGR       0.135750
     38 H191        -0.4370    -1.7780    -1.0330 ha         1 MGR       0.130500
     39 H221         7.0100    -1.8140     0.0920 h1         1 MGR       0.060033
     40 H222         6.0920    -1.1010    -1.2320 h1         1 MGR       0.060033
     41 H223         6.3210    -0.2070     0.2790 h1         1 MGR       0.060033
     42 H231         6.0900    -3.4460     0.9990 h1         1 MGR       0.060033
     43 H232         4.7880    -3.0420     2.1120 h1         1 MGR       0.060033
     44 H233         4.4310    -3.8490     0.5770 h1         1 MGR       0.060033
     45 H241        -6.3190    -0.5950    -0.2790 h1         1 MGR       0.060033
     46 H242        -6.8930    -2.1850     0.2070 h1         1 MGR       0.060033
     47 H243        -6.0070    -1.1910     1.3590 h1         1 MGR       0.060033
     48 H251        -4.2020    -4.1110    -0.0280 h1         1 MGR       0.060033
     49 H252        -5.8910    -3.8770    -0.4640 h1         1 MGR       0.060033
     50 H253        -4.6340    -3.5740    -1.6590 h1         1 MGR       0.060033
@<TRIPOS>BOND
     1     1     2 1   
     2     1     8 2   
     3     1    14 1   
     4     2     3 ar  
     5     2     7 ar  
     6     3     4 ar  
     7     3    26 1   
     8     4     5 ar  
     9     4    27 1   
    10     5     6 ar  
    11     5    28 1   
    12     6     7 ar  
    13     6    29 1   
    14     7    30 1   
    15     8     9 1   
    16     8    13 1   
    17     9    10 2   
    18     9    31 1   
    19    10    11 1   
    20    10    32 1   
    21    11    12 1   
    22    11    24 2   
    23    12    13 2   
    24    12    33 1   
    25    13    34 1   
    26    14    15 ar  
    27    14    19 ar  
    28    15    16 ar  
    29    15    35 1   
    30    16    17 ar  
    31    16    36 1   
    32    17    18 ar  
    33    17    25 1   
    34    18    19 ar  
    35    18    37 1   
    36    19    38 1   
    37    20    24 1   
    38    20    39 1   
    39    20    40 1   
    40    20    41 1   
    41    21    24 1   
    42    21    42 1   
    43    21    43 1   
    44    21    44 1   
    45    22    25 1   
    46    22    45 1   
    47    22    46 1   
    48    22    47 1   
    49    23    25 1   
    50    23    48 1   
    51    23    49 1   
    52    23    50 1   
@<TRIPOS>SUBSTRUCTURE
     1 MGR         1 TEMP              0 ****  ****    0 ROOT
