@<TRIPOS>MOLECULE
MGS
   43    43     1     0     0
SMALL
abcg2


@<TRIPOS>ATOM
      1 C1           0.1890    -0.5110     3.1990 c6         1 MGS       0.353300
      2 O1           0.3770    -1.8870     3.1300 os         1 MGS      -0.488000
      3 C7           1.3880    -2.3830     3.9830 c3         1 MGS       0.150900
      4 C2          -1.0710    -0.1790     2.3930 c6         1 MGS       0.122300
      5 O2          -1.4220     1.1670     2.5770 os         1 MGS      -0.422000
      6 C8          -2.1870     1.4160     3.7310 c3         1 MGS       0.142900
      7 C3          -0.8030    -0.4000     0.9060 c6         1 MGS       0.160300
      8 O3          -1.8870    -0.0190     0.1040 oh         1 MGS      -0.692000
      9 C4           0.4250     0.4050     0.4810 c6         1 MGS       0.077700
     10 N4           0.7310     0.1430    -0.9040 ns         1 MGS      -0.488900
     11 C9           0.4320     0.9730    -1.9130 c          1 MGS       0.577100
     12 O9           0.0680     2.1310    -1.7780 o          1 MGS      -0.588100
     13 C5           1.6250     0.0500     1.3680 c6         1 MGS       0.169300
     14 O5           1.2890     0.2170     2.7380 os         1 MGS      -0.464000
     15 C6           2.8310     0.9250     1.0970 c3         1 MGS      -0.085100
     16 O12         -1.9410    -1.7660    -5.1460 oh         1 MGS      -0.666000
     17 C11         -0.7610    -0.3920    -3.6100 c3         1 MGS      -0.112400
     18 C10          0.5390     0.3610    -3.3090 c3         1 MGS       0.091300
     19 O10          0.8250     1.3540    -4.2530 oh         1 MGS      -0.646000
     20 HC1          0.0720    -0.1970     4.2470 h2         1 MGS       0.072700
     21 HC71         1.3430    -3.4700     3.9430 h1         1 MGS       0.035033
     22 HC72         2.3870    -2.0670     3.6750 h1         1 MGS       0.035033
     23 HC73         1.2290    -2.0660     5.0190 h1         1 MGS       0.035033
     24 HC2         -1.8860    -0.8420     2.7210 h1         1 MGS       0.053700
     25 HC81        -2.4340     2.4770     3.7400 h1         1 MGS       0.031033
     26 HC82        -3.1210     0.8420     3.7300 h1         1 MGS       0.031033
     27 HC83        -1.6510     1.1860     4.6580 h1         1 MGS       0.031033
     28 HC3         -0.5710    -1.4650     0.7650 h1         1 MGS       0.041700
     29 HO3         -2.5160    -0.7450     0.0720 ho         1 MGS       0.503000
     30 HC4          0.2160     1.4720     0.5780 h1         1 MGS       0.123700
     31 HN4          0.9980    -0.8020    -1.1400 hn         1 MGS       0.304500
     32 HC5          1.9010    -0.9970     1.1740 h1         1 MGS       0.033700
     33 HC61         3.6640     0.6370     1.7390 hc         1 MGS       0.049033
     34 HC62         3.1590     0.8160     0.0640 hc         1 MGS       0.049033
     35 HC63         2.6060     1.9780     1.2740 hc         1 MGS       0.049033
     36 H121        -0.5940    -0.3030    -5.7510 h1         1 MGS       0.025200
     37 H122         0.1360    -1.7340    -5.0230 h1         1 MGS       0.025200
     38 HO12        -1.9330    -2.1650    -6.0200 ho         1 MGS       0.444000
     39 H112        -1.6060     0.3030    -3.5530 hc         1 MGS       0.063700
     40 HC10         1.3740    -0.3490    -3.3360 h1         1 MGS       0.071700
     41 HO10         0.2700     2.1170    -4.0480 ho         1 MGS       0.468000
     42 H111        -0.9220    -1.1500    -2.8390 hc         1 MGS       0.063700
     43 C12         -0.7310    -1.0600    -4.9710 c3         1 MGS       0.166600
@<TRIPOS>BOND
     1     1     2 1   
     2     1     4 1   
     3     1    14 1   
     4     1    20 1   
     5     2     3 1   
     6     3    21 1   
     7     3    22 1   
     8     3    23 1   
     9     4     5 1   
    10     4     7 1   
    11     4    24 1   
    12     5     6 1   
    13     6    25 1   
    14     6    26 1   
    15     6    27 1   
    16     7     8 1   
    17     7     9 1   
    18     7    28 1   
    19     8    29 1   
    20     9    10 1   
    21     9    13 1   
    22     9    30 1   
    23    10    11 1   
    24    10    31 1   
    25    11    12 2   
    26    11    18 1   
    27    13    14 1   
    28    13    15 1   
    29    13    32 1   
    30    15    33 1   
    31    15    34 1   
    32    15    35 1   
    33    16    38 1   
    34    16    43 1   
    35    17    18 1   
    36    17    39 1   
    37    17    42 1   
    38    17    43 1   
    39    18    19 1   
    40    18    40 1   
    41    19    41 1   
    42    36    43 1   
    43    37    43 1   
@<TRIPOS>SUBSTRUCTURE
     1 MGS         1 TEMP              0 ****  ****    0 ROOT
