@<TRIPOS>MOLECULE
MGS
   43    43     1     0     0
SMALL
No Charge or Current Charge


@<TRIPOS>ATOM
      1 C1           0.1610    -0.5170     3.3520 c6         1 MGS       0.353300
      2 O1           0.5220    -1.9130     3.3540 os         1 MGS      -0.488000
      3 C7           1.6220    -2.2850     4.2040 c3         1 MGS       0.150900
      4 C2          -1.1650    -0.2850     2.5500 c6         1 MGS       0.122300
      5 O2          -1.7310     1.0440     2.7330 os         1 MGS      -0.422000
      6 C8          -2.1500     1.4110     4.0610 c3         1 MGS       0.142900
      7 C3          -0.9320    -0.5410     1.0330 c6         1 MGS       0.160300
      8 O3          -2.1280    -0.2180     0.3000 oh         1 MGS      -0.692000
      9 C4           0.2830     0.2930     0.5140 c6         1 MGS       0.077700
     10 N4           0.5460     0.0330    -0.9210 ns         1 MGS      -0.488900
     11 C9           0.1060     0.8170    -1.9690 c          1 MGS       0.577100
     12 O9          -0.4600     1.8880    -1.7850 o          1 MGS      -0.588100
     13 C5           1.5280    -0.0240     1.3940 c6         1 MGS       0.169300
     14 O5           1.2440     0.2530     2.7830 os         1 MGS      -0.464000
     15 C6           2.7640     0.8340     1.0220 c3         1 MGS      -0.085100
     16 O12         -1.7240    -1.6070    -5.9240 oh         1 MGS      -0.666000
     17 C11         -0.8170    -0.3150    -4.0790 c3         1 MGS      -0.112400
     18 C10          0.4400     0.2820    -3.3980 c3         1 MGS       0.091300
     19 O10          0.9950     1.3190    -4.2420 oh         1 MGS      -0.646000
     20 HC1          0.0040    -0.2000     4.3930 h2         1 MGS       0.072700
     21 HC71         1.7950    -3.3670     4.1510 h1         1 MGS       0.035033
     22 HC72         2.5450    -1.7780     3.8970 h1         1 MGS       0.035033
     23 HC73         1.4120    -2.0240     5.2490 h1         1 MGS       0.035033
     24 HC2         -1.9060    -1.0140     2.9080 h1         1 MGS       0.053700
     25 HC81        -2.6430     2.3900     4.0440 h1         1 MGS       0.031033
     26 HC82        -2.8610     0.6770     4.4620 h1         1 MGS       0.031033
     27 HC83        -1.2930     1.4780     4.7420 h1         1 MGS       0.031033
     28 HC3         -0.6950    -1.6070     0.8970 h1         1 MGS       0.041700
     29 HO3         -2.4940     0.5800     0.7490 ho         1 MGS       0.503000
     30 HC4          0.0510     1.3610     0.6450 h1         1 MGS       0.123700
     31 HN4          1.0180    -0.8290    -1.1700 hn         1 MGS       0.304500
     32 HC5          1.8000    -1.0840     1.2860 h1         1 MGS       0.033700
     33 HC61         3.6040     0.6200     1.6940 hc         1 MGS       0.049033
     34 HC62         3.1010     0.6270     0.0000 hc         1 MGS       0.049033
     35 HC63         2.5400     1.9050     1.0920 hc         1 MGS       0.049033
     36 H121        -0.0890    -0.3290    -6.1260 h1         1 MGS       0.025200
     37 H122         0.2280    -1.8290    -5.2280 h1         1 MGS       0.025200
     38 HO12        -1.4900    -2.0510    -6.7700 ho         1 MGS       0.444000
     39 H112        -1.5530     0.4790    -4.2550 hc         1 MGS       0.063700
     40 HC10         1.1750    -0.5250    -3.2760 h1         1 MGS       0.071700
     41 HO10         0.4830     2.1410    -4.0590 ho         1 MGS       0.468000
     42 H111        -1.2820    -1.0290    -3.3890 hc         1 MGS       0.063700
     43 C12         -0.5160    -1.0400    -5.4060 c3         1 MGS       0.166600
@<TRIPOS>BOND
     1     1     2 1   
     2     1     4 1   
     3     1    14 1   
     4     1    20 1   
     5     2     3 1   
     6     3    21 1   
     7     3    22 1   
     8     3    23 1   
     9     4     5 1   
    10     4     7 1   
    11     4    24 1   
    12     5     6 1   
    13     6    25 1   
    14     6    26 1   
    15     6    27 1   
    16     7     8 1   
    17     7     9 1   
    18     7    28 1   
    19     8    29 1   
    20     9    10 1   
    21     9    13 1   
    22     9    30 1   
    23    10    11 1   
    24    10    31 1   
    25    11    12 2   
    26    11    18 1   
    27    13    14 1   
    28    13    15 1   
    29    13    32 1   
    30    15    33 1   
    31    15    34 1   
    32    15    35 1   
    33    16    38 1   
    34    16    43 1   
    35    17    18 1   
    36    17    39 1   
    37    17    42 1   
    38    17    43 1   
    39    18    19 1   
    40    18    40 1   
    41    19    41 1   
    42    36    43 1   
    43    37    43 1   
@<TRIPOS>SUBSTRUCTURE
     1 MGS         1 TEMP              0 ****  ****    0 ROOT
