@<TRIPOS>MOLECULE
MGU
   77    78     1     0     0
SMALL
abcg2


@<TRIPOS>ATOM
      1 C1           1.6060    -1.0010    -0.2350 c6         1 MGU       0.355300
      2 C2           1.9610     0.3810    -0.7960 c6         1 MGU       0.125300
      3 O2           3.2840     0.4220    -1.2560 os         1 MGU      -0.420000
      4 C8           4.2510     0.4370    -0.2340 c3         1 MGU       0.139900
      5 C3           1.0380     0.6730    -1.9790 c6         1 MGU       0.163300
      6 O3           1.3210     1.9030    -2.5990 oh         1 MGU      -0.690000
      7 C4           1.1550    -0.4420    -3.0180 c6         1 MGU       0.083700
      8 N4           0.2060    -0.2340    -4.0870 ns         1 MGU      -0.491900
      9 C9           0.5070     0.1890    -5.3210 c          1 MGU       0.576100
     10 O9           1.6470     0.3410    -5.7410 o          1 MGU      -0.592100
     11 C5           0.9010    -1.8090    -2.3620 c6         1 MGU       0.168300
     12 O5           1.7320    -1.9800    -1.2320 os         1 MGU      -0.467000
     13 C6           1.1720    -2.9730    -3.2880 c3         1 MGU      -0.087100
     14 O12         -2.5510     3.7630    -6.4330 oh         1 MGU      -0.664000
     15 C11         -1.0620     1.9960    -5.9700 c3         1 MGU      -0.118400
     16 C10         -0.6940     0.5290    -6.2010 c3         1 MGU       0.098300
     17 O10         -0.4270     0.2330    -7.5390 oh         1 MGU      -0.645000
     18 C21         -1.5520    -2.2370     0.8400 c6         1 MGU       0.380300
     19 O1           0.3080    -0.9090     0.2470 os         1 MGU      -0.473000
     20 C22         -0.1120    -1.8680     1.1940 c6         1 MGU       0.132300
     21 C23         -0.0680    -1.2560     2.5920 c6         1 MGU       0.135300
     22 O23          1.2160    -0.7860     2.9190 oh         1 MGU      -0.711000
     23 C24         -1.0390    -0.0770     2.6600 c6         1 MGU       0.075700
     24 N24         -1.0830     0.4580     3.9970 ns         1 MGU      -0.491900
     25 C29         -0.4780     1.6120     4.3570 c          1 MGU       0.577100
     26 O29         -0.0650     2.4420     3.5720 o          1 MGU      -0.589100
     27 C25         -2.4430    -0.4860     2.1920 c6         1 MGU       0.171300
     28 O25         -2.3880    -1.1280     0.9270 os         1 MGU      -0.464000
     29 C26         -3.3640     0.7070     2.0450 c3         1 MGU      -0.085100
     30 O32          2.0820     0.1420     8.2040 oh         1 MGU      -0.667000
     31 C31          0.8470     0.9290     6.3470 c3         1 MGU      -0.109400
     32 C30         -0.3080     1.8130     5.8610 c3         1 MGU       0.094300
     33 O30         -0.1040     3.1600     6.1460 oh         1 MGU      -0.648000
     34 HC1          2.3020    -1.3090     0.5500 h2         1 MGU       0.081700
     35 HC2          1.7980     1.1270    -0.0030 h1         1 MGU       0.063700
     36 HC81         5.2180     0.6280    -0.6960 h1         1 MGU       0.031700
     37 HC82         4.0600     1.2260     0.5010 h1         1 MGU       0.031700
     38 HC83         4.3250    -0.5130     0.3040 h1         1 MGU       0.031700
     39 HC3          0.0090     0.6720    -1.5950 h1         1 MGU       0.046700
     40 HO3          0.8700     2.5910    -2.1040 ho         1 MGU       0.503000
     41 HC4          2.1540    -0.4350    -3.4580 h1         1 MGU       0.121700
     42 HN4         -0.7710    -0.3280    -3.8540 hn         1 MGU       0.304500
     43 HC5         -0.1560    -1.8490    -2.0600 h1         1 MGU       0.028700
     44 HC61         1.0020    -3.9190    -2.7750 hc         1 MGU       0.048367
     45 HC62         0.5090    -2.9490    -4.1520 hc         1 MGU       0.048367
     46 HC63         2.2000    -2.9650    -3.6530 hc         1 MGU       0.048367
     47 H121        -2.1270     2.2650    -7.8170 h1         1 MGU       0.022200
     48 H122        -3.1390     1.7660    -6.4620 h1         1 MGU       0.022200
     49 HO12        -3.2980     4.0710    -6.9500 ho         1 MGU       0.445000
     50 H111        -1.2320     2.1700    -4.9040 hc         1 MGU       0.067200
     51 H112        -0.2200     2.6360    -6.2560 hc         1 MGU       0.067200
     52 HC10        -1.5450    -0.1030    -5.9210 h1         1 MGU       0.070700
     53 HO10         0.4060     0.6510    -7.7790 ho         1 MGU       0.466000
     54 HC21        -1.6110    -2.5550    -0.2120 h2         1 MGU       0.080700
     55 H271        -3.2860    -4.7150     2.0590 h1         1 MGU       0.036700
     56 H272        -4.0030    -3.1820     1.5370 h1         1 MGU       0.036700
     57 H273        -3.1980    -4.2310     0.3570 h1         1 MGU       0.036700
     58 HC22         0.5100    -2.7710     1.1470 h1         1 MGU       0.071700
     59 HC23        -0.4010    -2.0240     3.3050 h1         1 MGU       0.049700
     60 HO23         1.7110    -1.4850     3.3500 ho         1 MGU       0.508000
     61 HC24        -0.6700     0.7220     2.0130 h1         1 MGU       0.114700
     62 HN24        -1.3550    -0.1720     4.7370 hn         1 MGU       0.307500
     63 HC25        -2.8740    -1.1720     2.9370 h1         1 MGU       0.036700
     64 H261        -4.3530     0.3940     1.7120 hc         1 MGU       0.049367
     65 H262        -3.4770     1.2220     2.9970 hc         1 MGU       0.049367
     66 H263        -2.9670     1.4210     1.3230 hc         1 MGU       0.049367
     67 H321         1.3290     2.0810     8.0890 h1         1 MGU       0.026700
     68 H322         0.1220     0.8270     8.3640 h1         1 MGU       0.026700
     69 HO32         2.3050     0.2810     9.1260 ho         1 MGU       0.447000
     70 H312         1.7640     1.2000     5.8160 hc         1 MGU       0.059700
     71 HC30        -1.2290     1.5010     6.3730 h1         1 MGU       0.070700
     72 HO30         0.2860     3.5660     5.3620 ho         1 MGU       0.473000
     73 O21         -1.9200    -3.2730     1.6880 os         1 MGU      -0.488000
     74 C12         -2.2980     2.4180    -6.7440 c3         1 MGU       0.168600
     75 H311         0.6410    -0.1170     6.0990 hc         1 MGU       0.059700
     76 C27         -3.1630    -3.8660     1.3900 c3         1 MGU       0.151900
     77 C32          1.0670     1.0460     7.8430 c3         1 MGU       0.167600
@<TRIPOS>BOND
     1     1     2 1   
     2     1    12 1   
     3     1    19 1   
     4     1    34 1   
     5     2     3 1   
     6     2     5 1   
     7     2    35 1   
     8     3     4 1   
     9     4    36 1   
    10     4    37 1   
    11     4    38 1   
    12     5     6 1   
    13     5     7 1   
    14     5    39 1   
    15     6    40 1   
    16     7     8 1   
    17     7    11 1   
    18     7    41 1   
    19     8     9 1   
    20     8    42 1   
    21     9    10 2   
    22     9    16 1   
    23    11    12 1   
    24    11    13 1   
    25    11    43 1   
    26    13    44 1   
    27    13    45 1   
    28    13    46 1   
    29    14    49 1   
    30    14    74 1   
    31    15    16 1   
    32    15    50 1   
    33    15    51 1   
    34    15    74 1   
    35    16    17 1   
    36    16    52 1   
    37    17    53 1   
    38    18    20 1   
    39    18    28 1   
    40    18    54 1   
    41    18    73 1   
    42    19    20 1   
    43    20    21 1   
    44    20    58 1   
    45    21    22 1   
    46    21    23 1   
    47    21    59 1   
    48    22    60 1   
    49    23    24 1   
    50    23    27 1   
    51    23    61 1   
    52    24    25 1   
    53    24    62 1   
    54    25    26 2   
    55    25    32 1   
    56    27    28 1   
    57    27    29 1   
    58    27    63 1   
    59    29    64 1   
    60    29    65 1   
    61    29    66 1   
    62    30    69 1   
    63    30    77 1   
    64    31    32 1   
    65    31    70 1   
    66    31    75 1   
    67    31    77 1   
    68    32    33 1   
    69    32    71 1   
    70    33    72 1   
    71    47    74 1   
    72    48    74 1   
    73    55    76 1   
    74    56    76 1   
    75    57    76 1   
    76    67    77 1   
    77    68    77 1   
    78    73    76 1   
@<TRIPOS>SUBSTRUCTURE
     1 MGU         1 TEMP              0 ****  ****    0 ROOT
