@<TRIPOS>MOLECULE
MGU
   77    78     1     0     0
SMALL
No Charge or Current Charge


@<TRIPOS>ATOM
      1 C1           1.3330    -0.6360    -0.3930 c6         1 MGU       0.355300
      2 C2           1.6530     0.7490    -1.0460 c6         1 MGU       0.125300
      3 O2           3.0640     0.9370    -1.3510 os         1 MGU      -0.420000
      4 C8           3.9870     0.9360    -0.2450 c3         1 MGU       0.139900
      5 C3           0.8130     0.9440    -2.3410 c6         1 MGU       0.163300
      6 O3           1.1960     2.1730    -2.9870 oh         1 MGU      -0.690000
      7 C4           0.9950    -0.2740    -3.3040 c6         1 MGU       0.083700
      8 N4           0.1700    -0.1250    -4.5260 ns         1 MGU      -0.491900
      9 C9           0.6190     0.3620    -5.7370 c          1 MGU       0.576100
     10 O9           1.8010     0.6140    -5.9380 o          1 MGU      -0.592100
     11 C5           0.6520    -1.5820    -2.5340 c6         1 MGU       0.168300
     12 O5           1.4800    -1.7030    -1.3580 os         1 MGU      -0.467000
     13 C6           0.9000    -2.8600    -3.3740 c3         1 MGU      -0.087100
     14 O12         -2.3980     3.5670    -8.0790 oh         1 MGU      -0.664000
     15 C11         -0.8640     1.9860    -7.0610 c3         1 MGU      -0.118400
     16 C10         -0.4670     0.5040    -6.8520 c3         1 MGU       0.098300
     17 O10         -0.0160    -0.0520    -8.1110 oh         1 MGU      -0.645000
     18 C21         -1.7970    -2.1540     0.9640 c6         1 MGU       0.380300
     19 O1          -0.0170    -0.6580     0.1130 os         1 MGU      -0.473000
     20 C22         -0.3120    -1.6970     1.0920 c6         1 MGU       0.132300
     21 C23         -0.0120    -1.2430     2.5620 c6         1 MGU       0.135300
     22 O23          1.3390    -0.7600     2.7160 oh         1 MGU      -0.711000
     23 C24         -1.0420    -0.1600     3.0190 c6         1 MGU       0.075700
     24 N24         -0.8310     0.2470     4.4310 ns         1 MGU      -0.491900
     25 C29          0.1620     1.0870     4.8840 c          1 MGU       0.577100
     26 O29          1.0190     1.5140     4.1200 o          1 MGU      -0.589100
     27 C25         -2.4830    -0.7220     2.8140 c6         1 MGU       0.171300
     28 O25         -2.6890    -1.1210     1.4420 os         1 MGU      -0.464000
     29 C26         -3.5880     0.3180     3.1300 c3         1 MGU      -0.085100
     30 O32          2.0970     0.1220     9.3780 oh         1 MGU      -0.667000
     31 C31          1.2060     0.7170     7.1980 c3         1 MGU      -0.109400
     32 C30          0.1130     1.4670     6.3970 c3         1 MGU       0.094300
     33 O30          0.2690     2.8940     6.5930 oh         1 MGU      -0.648000
     34 HC1          2.0390    -0.8030     0.4310 h2         1 MGU       0.081700
     35 HC2          1.3590     1.5310    -0.3310 h1         1 MGU       0.063700
     36 HC81         4.9960     1.1840    -0.5950 h1         1 MGU       0.031700
     37 HC82         3.6940     1.6790     0.5080 h1         1 MGU       0.031700
     38 HC83         4.0310    -0.0500     0.2330 h1         1 MGU       0.031700
     39 HC3         -0.2490     0.9960    -2.0560 h1         1 MGU       0.046700
     40 HO3          2.1750     2.2260    -2.8770 ho         1 MGU       0.503000
     41 HC4          2.0540    -0.3300    -3.5950 h1         1 MGU       0.121700
     42 HN4         -0.8230    -0.3200    -4.4580 hn         1 MGU       0.304500
     43 HC5         -0.4050    -1.5720    -2.2310 h1         1 MGU       0.028700
     44 HC61         0.6960    -3.7620    -2.7840 hc         1 MGU       0.048367
     45 HC62         0.2490    -2.8920    -4.2550 hc         1 MGU       0.048367
     46 HC63         1.9380    -2.9120    -3.7230 hc         1 MGU       0.048367
     47 H121        -1.8290     1.7860    -8.9970 h1         1 MGU       0.022200
     48 H122        -2.9270     1.6070    -7.6110 h1         1 MGU       0.022200
     49 HO12        -3.1640     3.6460    -8.6910 ho         1 MGU       0.445000
     50 H111        -1.1090     2.4230    -6.0840 hc         1 MGU       0.067200
     51 H112        -0.0060     2.5470    -7.4500 hc         1 MGU       0.067200
     52 HC10        -1.3560    -0.0410    -6.5070 h1         1 MGU       0.070700
     53 HO10         0.9290     0.2030    -8.2130 ho         1 MGU       0.466000
     54 HC21        -2.0010    -2.3390    -0.1020 h2         1 MGU       0.080700
     55 H271        -3.3880    -4.9150     2.0930 h1         1 MGU       0.036700
     56 H272        -4.1290    -3.3220     1.8360 h1         1 MGU       0.036700
     57 H273        -3.4800    -4.2370     0.4530 h1         1 MGU       0.036700
     58 HC22         0.3100    -2.5750     0.8650 h1         1 MGU       0.071700
     59 HC23        -0.1490    -2.1210     3.2110 h1         1 MGU       0.049700
     60 HO23         1.2710     0.1060     3.2030 ho         1 MGU       0.508000
     61 HC24        -0.9310     0.7270     2.3760 h1         1 MGU       0.114700
     62 HN24        -1.4950    -0.0780     5.1260 hn         1 MGU       0.307500
     63 HC25        -2.6370    -1.5940     3.4670 h1         1 MGU       0.036700
     64 H261        -4.5830    -0.0940     2.9250 hc         1 MGU       0.049367
     65 H262        -3.5690     0.6160     4.1840 hc         1 MGU       0.049367
     66 H263        -3.4670     1.2230     2.5230 hc         1 MGU       0.049367
     67 H321         1.2000     1.9610     8.9810 h1         1 MGU       0.026700
     68 H322         0.0890     0.5770     9.0520 h1         1 MGU       0.026700
     69 HO32         1.9930     0.2710    10.3440 ho         1 MGU       0.447000
     70 H312         2.1990     1.0470     6.8670 hc         1 MGU       0.059700
     71 HC30        -0.8670     1.1490     6.7770 h1         1 MGU       0.070700
     72 HO30         0.9820     3.1920     5.9810 ho         1 MGU       0.473000
     73 O21         -2.0350    -3.3710     1.7010 os         1 MGU      -0.488000
     74 C12         -2.0720     2.1760    -8.0000 c3         1 MGU       0.168600
     75 H311         1.1360    -0.3530     6.9680 hc         1 MGU       0.059700
     76 C27         -3.3200    -3.9880     1.5100 c3         1 MGU       0.151900
     77 C32          1.0870     0.8990     8.7250 c3         1 MGU       0.167600
@<TRIPOS>BOND
     1     1     2 1   
     2     1    12 1   
     3     1    19 1   
     4     1    34 1   
     5     2     3 1   
     6     2     5 1   
     7     2    35 1   
     8     3     4 1   
     9     4    36 1   
    10     4    37 1   
    11     4    38 1   
    12     5     6 1   
    13     5     7 1   
    14     5    39 1   
    15     6    40 1   
    16     7     8 1   
    17     7    11 1   
    18     7    41 1   
    19     8     9 1   
    20     8    42 1   
    21     9    10 2   
    22     9    16 1   
    23    11    12 1   
    24    11    13 1   
    25    11    43 1   
    26    13    44 1   
    27    13    45 1   
    28    13    46 1   
    29    14    49 1   
    30    14    74 1   
    31    15    16 1   
    32    15    50 1   
    33    15    51 1   
    34    15    74 1   
    35    16    17 1   
    36    16    52 1   
    37    17    53 1   
    38    18    20 1   
    39    18    28 1   
    40    18    54 1   
    41    18    73 1   
    42    19    20 1   
    43    20    21 1   
    44    20    58 1   
    45    21    22 1   
    46    21    23 1   
    47    21    59 1   
    48    22    60 1   
    49    23    24 1   
    50    23    27 1   
    51    23    61 1   
    52    24    25 1   
    53    24    62 1   
    54    25    26 2   
    55    25    32 1   
    56    27    28 1   
    57    27    29 1   
    58    27    63 1   
    59    29    64 1   
    60    29    65 1   
    61    29    66 1   
    62    30    69 1   
    63    30    77 1   
    64    31    32 1   
    65    31    70 1   
    66    31    75 1   
    67    31    77 1   
    68    32    33 1   
    69    32    71 1   
    70    33    72 1   
    71    47    74 1   
    72    48    74 1   
    73    55    76 1   
    74    56    76 1   
    75    57    76 1   
    76    67    77 1   
    77    68    77 1   
    78    73    76 1   
@<TRIPOS>SUBSTRUCTURE
     1 MGU         1 TEMP              0 ****  ****    0 ROOT
