@<TRIPOS>MOLECULE
MGW
   51    52     1     0     0
SMALL
No Charge or Current Charge


@<TRIPOS>ATOM
      1 C10         -2.9230     3.4420     0.6260 cc         1 MGW       0.413400
      2 N12         -1.9710    -0.8480    -0.3250 ns         1 MGW      -0.504900
      3 C13         -1.0330    -1.6310     0.3150 c          1 MGW       0.606100
      4 C15          0.4390    -1.4450    -0.1680 c3         1 MGW       0.125800
      5 C17          2.7150    -0.5060     0.0490 c3         1 MGW       0.203800
      6 C20          5.7370    -1.2910     0.7330 ca         1 MGW      -0.107500
      7 C21          7.0610    -1.5730     0.3530 ca         1 MGW      -0.119500
      8 C22          7.8400    -0.5800    -0.2670 ca         1 MGW      -0.130000
      9 C24          5.9680     0.9770    -0.1280 ca         1 MGW      -0.107500
     10 C26          0.5080     1.6330    -0.9530 c          1 MGW       0.692000
     11 C03         -3.9620    -2.2970    -0.7460 c          1 MGW       0.580100
     12 O02         -5.1420    -2.6930    -0.1660 os         1 MGW      -0.446100
     13 C01         -5.7450    -3.9170    -0.6300 c3         1 MGW       0.153900
     14 C05         -3.4340    -0.9710    -0.1270 c3         1 MGW       0.069700
     15 C06         -4.2140     0.2450    -0.6850 c3         1 MGW      -0.007100
     16 C07         -3.9260     1.5450     0.0270 cc         1 MGW      -0.227300
     17 C08         -4.6740     2.2180     0.9650 cd         1 MGW       0.243900
     18 N09         -4.0450     3.3920     1.3330 nd         1 MGW      -0.664000
     19 N11         -2.8190     2.3370    -0.1830 na         1 MGW      -0.293500
     20 O14         -1.3570    -2.4410     1.1780 o          1 MGW      -0.608100
     21 N16          1.3030    -0.4200     0.5130 n3         1 MGW      -0.726600
     22 C25          0.7210     0.9700     0.4520 c3         1 MGW       0.023800
     23 O27          1.3660     2.3920    -1.3830 o          1 MGW      -0.738500
     24 O28         -0.5300     1.3810    -1.5530 o          1 MGW      -0.738500
     25 C18          3.7390     0.2830     0.8990 c3         1 MGW      -0.040100
     26 C19          5.1800    -0.0150     0.4920 ca         1 MGW      -0.058300
     27 C23          7.2940     0.6950    -0.5050 ca         1 MGW      -0.119500
     28 H10         -2.1710     4.2230     0.6500 h5         1 MGW       0.058100
     29 HN12        -1.6100    -0.1580    -0.9830 hn         1 MGW       0.338500
     30 H115         0.9050    -2.4350    -0.0720 h1         1 MGW       0.052200
     31 H215         0.3940    -1.2370    -1.2450 h1         1 MGW       0.052200
     32 H117         3.0260    -1.5600     0.0630 h1         1 MGW       0.032700
     33 H217         2.7930    -0.1700    -0.9940 h1         1 MGW       0.032700
     34 H22          8.8640    -0.7980    -0.5620 ha         1 MGW       0.096000
     35 H24          5.5550     1.9670    -0.3190 ha         1 MGW       0.119500
     36 H101        -5.9850    -3.8550    -1.7010 h1         1 MGW       0.043033
     37 H201        -5.0710    -4.7700    -0.4720 h1         1 MGW       0.043033
     38 H301        -6.6770    -4.1130    -0.0840 h1         1 MGW       0.043033
     39 H05         -3.6300    -1.0310     0.9520 h1         1 MGW       0.080700
     40 H106        -3.9980     0.3490    -1.7560 hc         1 MGW       0.060200
     41 H206        -5.2900     0.0360    -0.6140 hc         1 MGW       0.060200
     42 H08         -5.6280     1.9260     1.3900 h4         1 MGW       0.032100
     43 HN11        -2.0380     2.1420    -0.8110 hn         1 MGW       0.350000
     44 H125         1.3350     1.6600     1.0440 h1         1 MGW       0.036200
     45 H225        -0.2610     0.9700     0.9430 h1         1 MGW       0.036200
     46 H118         3.5370     1.3570     0.8120 hc         1 MGW       0.058200
     47 H218         3.5960     0.0250     1.9560 hc         1 MGW       0.058200
     48 H23          7.8960     1.4660    -0.9830 ha         1 MGW       0.100000
     49 H20          5.1420    -2.0650     1.2150 ha         1 MGW       0.119500
     50 O04         -3.3930    -2.9220    -1.6360 o          1 MGW      -0.475000
     51 H21          7.4830    -2.5600     0.5390 ha         1 MGW       0.100000
@<TRIPOS>BOND
     1     1    18 2   
     2     1    19 1   
     3     1    28 1   
     4     2     3 1   
     5     2    14 1   
     6     2    29 1   
     7     3     4 1   
     8     3    20 2   
     9     4    21 1   
    10     4    30 1   
    11     4    31 1   
    12     5    21 1   
    13     5    25 1   
    14     5    32 1   
    15     5    33 1   
    16     6     7 ar  
    17     6    26 ar  
    18     6    49 1   
    19     7     8 ar  
    20     7    51 1   
    21     8    27 ar  
    22     8    34 1   
    23     9    26 ar  
    24     9    27 ar  
    25     9    35 1   
    26    10    22 1   
    27    10    23 1   
    28    10    24 1   
    29    11    12 1   
    30    11    14 1   
    31    11    50 2   
    32    12    13 1   
    33    13    36 1   
    34    13    37 1   
    35    13    38 1   
    36    14    15 1   
    37    14    39 1   
    38    15    16 1   
    39    15    40 1   
    40    15    41 1   
    41    16    17 2   
    42    16    19 1   
    43    17    18 1   
    44    17    42 1   
    45    19    43 1   
    46    21    22 1   
    47    22    44 1   
    48    22    45 1   
    49    25    26 1   
    50    25    46 1   
    51    25    47 1   
    52    27    48 1   
@<TRIPOS>SUBSTRUCTURE
     1 MGW         1 TEMP              0 ****  ****    0 ROOT
