@<TRIPOS>MOLECULE
MGW
   51    52     1     0     0
SMALL
bcc


@<TRIPOS>ATOM
      1 C10         -4.0330     3.3750     0.5200 cc         1 MGW       0.413400
      2 N12         -2.0920    -0.4330    -0.5160 ns         1 MGW      -0.571900
      3 C13         -0.9670    -0.9500     0.0070 c          1 MGW       0.673100
      4 C15          0.3200    -0.4000    -0.5860 c3         1 MGW       0.125800
      5 C17          2.6790    -0.2580    -0.1470 c3         1 MGW       0.203800
      6 C20          5.6450    -1.7860     0.0740 ca         1 MGW      -0.125500
      7 C21          6.8730    -1.9640    -0.5490 ca         1 MGW      -0.137500
      8 C22          7.6000    -0.8640    -0.9860 ca         1 MGW      -0.148000
      9 C24          5.8610     0.5850    -0.1690 ca         1 MGW      -0.125500
     10 C26          1.0740     2.2740     0.9080 c          1 MGW       0.902600
     11 C03         -3.6240    -2.3190    -0.4380 c          1 MGW       0.629100
     12 O02         -4.5280    -2.8620     0.3580 os         1 MGW      -0.422900
     13 C01         -4.9180    -4.2110     0.0910 c3         1 MGW       0.130700
     14 C05         -3.3880    -0.8600    -0.0770 c3         1 MGW       0.069700
     15 C06         -4.4820     0.0020    -0.7350 c3         1 MGW      -0.007100
     16 C07         -4.2630     1.4560    -0.5210 cc         1 MGW      -0.241900
     17 C08         -3.9280     2.4560    -1.3930 cd         1 MGW       0.309200
     18 N09         -3.7900     3.6450    -0.7350 nd         1 MGW      -0.664000
     19 N11         -4.3240     2.0700     0.7000 na         1 MGW      -0.293900
     20 O14         -0.9940    -1.8120     0.8730 o          1 MGW      -0.608100
     21 N16          1.3420    -0.2530     0.4160 n3         1 MGW      -0.726600
     22 C25          1.0540     0.7990     1.3710 c3         1 MGW       0.023800
     23 O27          0.8040     3.1010     1.8040 o          1 MGW      -0.843800
     24 O28          1.3530     2.5290    -0.2790 o          1 MGW      -0.843800
     25 C18          3.7760    -0.3190     0.9150 c3         1 MGW      -0.040100
     26 C19          5.1220    -0.5100     0.2750 ca         1 MGW      -0.058300
     27 C23          7.0890     0.4130    -0.7940 ca         1 MGW      -0.137500
     28 H10         -4.0180     4.0770     1.3390 h5         1 MGW       0.058100
     29 HN12        -2.0290     0.2910    -1.2140 hn         1 MGW       0.338500
     30 H115         0.6500    -1.1350    -1.3280 h1         1 MGW       0.052200
     31 H215         0.1170     0.5250    -1.1420 h1         1 MGW       0.052200
     32 H117         2.7660    -1.1540    -0.7710 h1         1 MGW       0.032700
     33 H217         2.8690     0.6000    -0.8030 h1         1 MGW       0.032700
     34 H22          8.5580    -1.0020    -1.4710 ha         1 MGW       0.114000
     35 H24          5.4710     1.5850    -0.0170 ha         1 MGW       0.137500
     36 H101        -5.3480    -4.3090    -0.9060 h1         1 MGW       0.043033
     37 H201        -4.0740    -4.8920     0.1890 h1         1 MGW       0.043033
     38 H301        -5.6700    -4.4570     0.8340 h1         1 MGW       0.043033
     39 H05         -3.4660    -0.7580     1.0100 h1         1 MGW       0.080700
     40 H106        -4.4990    -0.1850    -1.8100 hc         1 MGW       0.060200
     41 H206        -5.4510    -0.3090    -0.3400 hc         1 MGW       0.060200
     42 H08         -3.7860     2.3690    -2.4610 h4         1 MGW       0.032100
     43 HN11        -4.5530     1.6350     1.5790 hn         1 MGW       0.299700
     44 H125         1.7410     0.7080     2.2170 h1         1 MGW       0.036200
     45 H225         0.0690     0.6020     1.8080 h1         1 MGW       0.036200
     46 H118         3.7870     0.6010     1.5050 hc         1 MGW       0.058200
     47 H218         3.5680    -1.1410     1.6050 hc         1 MGW       0.058200
     48 H23          7.6490     1.2780    -1.1250 ha         1 MGW       0.118000
     49 H20          5.0880    -2.6520     0.4140 ha         1 MGW       0.137500
     50 O04         -3.0950    -2.8860    -1.3570 o          1 MGW      -0.524000
     51 H21          7.2640    -2.9630    -0.6920 ha         1 MGW       0.118000
@<TRIPOS>BOND
     1     1    18 2   
     2     1    19 1   
     3     1    28 1   
     4     2     3 1   
     5     2    14 1   
     6     2    29 1   
     7     3     4 1   
     8     3    20 2   
     9     4    21 1   
    10     4    30 1   
    11     4    31 1   
    12     5    21 1   
    13     5    25 1   
    14     5    32 1   
    15     5    33 1   
    16     6     7 ar  
    17     6    26 ar  
    18     6    49 1   
    19     7     8 ar  
    20     7    51 1   
    21     8    27 ar  
    22     8    34 1   
    23     9    26 ar  
    24     9    27 ar  
    25     9    35 1   
    26    10    22 1   
    27    10    23 1   
    28    10    24 1   
    29    11    12 1   
    30    11    14 1   
    31    11    50 2   
    32    12    13 1   
    33    13    36 1   
    34    13    37 1   
    35    13    38 1   
    36    14    15 1   
    37    14    39 1   
    38    15    16 1   
    39    15    40 1   
    40    15    41 1   
    41    16    17 2   
    42    16    19 1   
    43    17    18 1   
    44    17    42 1   
    45    19    43 1   
    46    21    22 1   
    47    22    44 1   
    48    22    45 1   
    49    25    26 1   
    50    25    46 1   
    51    25    47 1   
    52    27    48 1   
@<TRIPOS>SUBSTRUCTURE
     1 MGW         1 TEMP              0 ****  ****    0 ROOT
