@<TRIPOS>MOLECULE
MGX
   12    11     1     0     0
SMALL
bcc


@<TRIPOS>ATOM
      1 CD           1.9180    -0.0410     0.1030 c3         1 MGX       0.207100
      2 NE           0.6690     0.6150    -0.2130 nu         1 MGX      -0.850200
      3 CZ          -0.5560     0.0380    -0.0090 c2         1 MGX       0.792100
      4 NH1         -0.5500    -1.3370     0.0330 nv         1 MGX      -0.957800
      5 NH2         -1.5860     0.7890     0.1510 n2         1 MGX      -0.903100
      6 HD1          1.9760    -0.4010     1.1340 h1         1 MGX       0.034367
      7 HD2          2.1170    -0.8820    -0.5620 h1         1 MGX       0.034367
      8 HD3          2.7230     0.6740    -0.0490 h1         1 MGX       0.034367
      9 HNE          0.6550     1.6100    -0.0640 hn         1 MGX       0.434800
     10 HH11        -1.4540    -1.7710    -0.0670 hn         1 MGX       0.397800
     11 HH12         0.1540    -1.8150    -0.5070 hn         1 MGX       0.397800
     12 HNH2        -2.4300     0.2310     0.2070 hn         1 MGX       0.378400
@<TRIPOS>BOND
     1     1     2 1   
     2     1     6 1   
     3     1     7 1   
     4     1     8 1   
     5     2     3 1   
     6     2     9 1   
     7     3     4 1   
     8     3     5 2   
     9     4    10 1   
    10     4    11 1   
    11     5    12 1   
@<TRIPOS>SUBSTRUCTURE
     1 MGX         1 TEMP              0 ****  ****    0 ROOT
