@<TRIPOS>MOLECULE
MGX
   12    11     1     0     0
SMALL
No Charge or Current Charge


@<TRIPOS>ATOM
      1 CD           1.9430    -0.0140     0.2200 c3         1 MGX       0.207100
      2 NE           0.5840     0.2710    -0.2700 nu         1 MGX      -0.905400
      3 CZ          -0.4750    -0.1960     0.3410 c2         1 MGX       0.792100
      4 NH1         -0.6770    -1.3150    -0.2770 nv         1 MGX      -1.068200
      5 NH2         -1.3820     0.6180     0.5470 n2         1 MGX      -0.903100
      6 HD1          2.0670     0.3620     1.2450 h1         1 MGX       0.034367
      7 HD2          2.1390    -1.0940     0.2200 h1         1 MGX       0.034367
      8 HD3          2.6890     0.4740    -0.4210 h1         1 MGX       0.034367
      9 HNE          0.4140     1.2540    -0.4510 hn         1 MGX       0.490000
     10 HH11        -1.5420    -1.2850    -0.7940 hn         1 MGX       0.453000
     11 HH12         0.1210    -1.4450    -0.8790 hn         1 MGX       0.453000
     12 HNH2        -2.2460     0.0800     0.6770 hn         1 MGX       0.378400
@<TRIPOS>BOND
     1     1     2 1   
     2     1     6 1   
     3     1     7 1   
     4     1     8 1   
     5     2     3 1   
     6     2     9 1   
     7     3     4 1   
     8     3     5 2   
     9     4    10 1   
    10     4    11 1   
    11     5    12 1   
@<TRIPOS>SUBSTRUCTURE
     1 MGX         1 TEMP              0 ****  ****    0 ROOT
