@<TRIPOS>MOLECULE
MGY
   12    11     1     0     0
SMALL
bcc


@<TRIPOS>ATOM
      1 N            0.2960    -0.2130     1.3940 n7         1 MGY      -0.802200
      2 CA          -0.6550    -0.0960     0.3130 c3         1 MGY       0.015800
      3 C            0.0110     0.0460    -1.0680 c          1 MGY       0.928600
      4 O            1.2040     0.4090    -1.0900 o          1 MGY      -0.844300
      5 OXT         -0.7210    -0.1730    -2.0530 o          1 MGY      -0.844300
      6 CN          -0.2850     0.0460     2.6910 c3         1 MGY       0.160100
      7 HN           1.0520     0.4340     1.2140 hn         1 MGY       0.373800
      8 HA1         -1.3180    -0.9680     0.3060 h1         1 MGY       0.007200
      9 HA2         -1.3240     0.7780     0.4340 h1         1 MGY       0.007200
     10 HN1          0.4860     0.0140     3.4610 h1         1 MGY      -0.000967
     11 HN2         -0.7970     1.0180     2.7680 h1         1 MGY      -0.000967
     12 HN3         -1.0220    -0.7220     2.9360 h1         1 MGY      -0.000967
@<TRIPOS>BOND
     1     1     2 1   
     2     1     6 1   
     3     1     7 1   
     4     2     3 1   
     5     2     8 1   
     6     2     9 1   
     7     3     4 1   
     8     3     5 1   
     9     6    10 1   
    10     6    11 1   
    11     6    12 1   
@<TRIPOS>SUBSTRUCTURE
     1 MGY         1 TEMP              0 ****  ****    0 ROOT
