@<TRIPOS>MOLECULE
MGY
   12    11     1     0     0
SMALL
No Charge or Current Charge


@<TRIPOS>ATOM
      1 N            0.2860    -0.2000     1.4200 n7         1 MGY      -0.857400
      2 CA          -0.6540     0.0610     0.2790 c3         1 MGY       0.015800
      3 C           -0.0130     0.0020    -1.1610 c          1 MGY       0.718000
      4 O            0.8670     0.8090    -1.4380 o          1 MGY      -0.739000
      5 OXT         -0.3960    -0.8630    -1.9390 o          1 MGY      -0.739000
      6 CN          -0.3000    -0.0540     2.7620 c3         1 MGY       0.160100
      7 HN           1.0710     0.4620     1.3390 hn         1 MGY       0.429000
      8 HA1         -1.4830    -0.6590     0.3120 h1         1 MGY       0.007200
      9 HA2         -1.0970     1.0610     0.3900 h1         1 MGY       0.007200
     10 HN1          0.4520    -0.2690     3.5320 h1         1 MGY      -0.000967
     11 HN2         -0.6660     0.9700     2.9150 h1         1 MGY      -0.000967
     12 HN3         -1.1400    -0.7470     2.8960 h1         1 MGY      -0.000967
@<TRIPOS>BOND
     1     1     2 1   
     2     1     6 1   
     3     1     7 1   
     4     2     3 1   
     5     2     8 1   
     6     2     9 1   
     7     3     4 1   
     8     3     5 1   
     9     6    10 1   
    10     6    11 1   
    11     6    12 1   
@<TRIPOS>SUBSTRUCTURE
     1 MGY         1 TEMP              0 ****  ****    0 ROOT
