@<TRIPOS>MOLECULE
MGZ
   31    32     1     0     0
SMALL
No Charge or Current Charge


@<TRIPOS>ATOM
      1 C2           4.7920     1.0950    -0.0130 ca         1 MGZ       0.104000
      2 C3           4.5080     0.3510     1.1430 ca         1 MGZ      -0.117000
      3 Cl1          6.3020     1.9890    -0.1320 cl         1 MGZ      -0.252000
      4 C4           3.3000    -0.3640     1.2400 ca         1 MGZ      -0.082500
      5 C5           3.8730     1.1270    -1.0740 ca         1 MGZ      -0.117000
      6 C6           2.6660     0.4120    -0.9780 ca         1 MGZ      -0.082500
      7 C7           2.3720    -0.3390     0.1790 ca         1 MGZ      -0.021300
      8 C8           1.0610    -1.1170     0.2830 c3         1 MGZ       0.041600
      9 C9           1.0380    -2.2870    -0.7580 c          1 MGZ       0.709000
     10 O12         -0.0260    -0.1680     0.1180 os         1 MGZ      -0.331100
     11 O11          1.7390    -3.2640    -0.5280 o          1 MGZ      -0.693000
     12 O10          0.3360    -2.1930    -1.7580 o          1 MGZ      -0.693000
     13 C13         -1.3490    -0.4860     0.3710 ca         1 MGZ       0.202100
     14 C16         -1.7480    -1.7190     0.9290 ca         1 MGZ      -0.153000
     15 C14         -2.3210     0.4830     0.0670 ca         1 MGZ      -0.120000
     16 C17         -3.1090    -1.9740     1.1640 ca         1 MGZ      -0.083000
     17 C15         -3.6920     0.2420     0.3080 ca         1 MGZ      -0.168300
     18 C18         -4.0750    -1.0020     0.8530 ca         1 MGZ      -0.134000
     19 C19         -4.7440     1.3050    -0.0410 c3         1 MGZ       0.352300
     20 F20         -4.2660     2.5640     0.0930 f          1 MGZ      -0.123667
     21 F21         -5.1650     1.1770    -1.3200 f          1 MGZ      -0.123667
     22 F22         -5.8410     1.2240     0.7460 f          1 MGZ      -0.123667
     23 H1           5.2200     0.3280     1.9640 ha         1 MGZ       0.112500
     24 H2           3.0880    -0.9380     2.1390 ha         1 MGZ       0.128000
     25 H3           4.0950     1.7040    -1.9680 ha         1 MGZ       0.112500
     26 H4           1.9570     0.4410    -1.8030 ha         1 MGZ       0.128000
     27 H5           1.0110    -1.5680     1.2820 h1         1 MGZ       0.040700
     28 H7          -1.0240    -2.4870     1.1830 ha         1 MGZ       0.142000
     29 H8          -1.9970     1.4280    -0.3630 ha         1 MGZ       0.131000
     30 H9          -3.4180    -2.9270     1.5880 ha         1 MGZ       0.104000
     31 H10         -5.1250    -1.2230     1.0370 ha         1 MGZ       0.111000
@<TRIPOS>BOND
     1     1     2 ar  
     2     1     3 1   
     3     1     5 ar  
     4     2     4 ar  
     5     2    23 1   
     6     4     7 ar  
     7     4    24 1   
     8     5     6 ar  
     9     5    25 1   
    10     6     7 ar  
    11     6    26 1   
    12     7     8 1   
    13     8     9 1   
    14     8    10 1   
    15     8    27 1   
    16     9    11 1   
    17     9    12 1   
    18    10    13 1   
    19    13    14 ar  
    20    13    15 ar  
    21    14    16 ar  
    22    14    28 1   
    23    15    17 ar  
    24    15    29 1   
    25    16    18 ar  
    26    16    30 1   
    27    17    18 ar  
    28    17    19 1   
    29    18    31 1   
    30    19    20 1   
    31    19    21 1   
    32    19    22 1   
@<TRIPOS>SUBSTRUCTURE
     1 MGZ         1 TEMP              0 ****  ****    0 ROOT
