@<TRIPOS>MOLECULE
MGZ
   31    32     1     0     0
SMALL
bcc


@<TRIPOS>ATOM
      1 C2           4.7600     0.9680    -0.1350 ca         1 MGZ       0.012400
      2 C3           4.6380     0.0090     0.8580 ca         1 MGZ      -0.135000
      3 CL1          6.2920     1.7400    -0.3940 cl         1 MGZ      -0.160400
      4 C4           3.4060    -0.5960     1.0610 ca         1 MGZ      -0.100500
      5 C5           3.6750     1.3230    -0.9210 ca         1 MGZ      -0.135000
      6 C6           2.4510     0.7060    -0.7080 ca         1 MGZ      -0.100500
      7 C7           2.3010    -0.2530     0.2900 ca         1 MGZ      -0.021300
      8 C8           1.0000    -0.9750     0.4880 c3         1 MGZ       0.018400
      9 C9           0.9560    -2.1590    -0.5250 c          1 MGZ       0.919600
     10 O12         -0.0400    -0.0400     0.2850 os         1 MGZ      -0.307900
     11 O11          1.6100    -3.1550    -0.1750 o          1 MGZ      -0.798300
     12 O10          0.3210    -1.9710    -1.5710 o          1 MGZ      -0.798300
     13 C13         -1.3110    -0.4340     0.4480 ca         1 MGZ       0.202100
     14 C16         -1.7020    -1.6490     1.0080 ca         1 MGZ      -0.171000
     15 C14         -2.2850     0.4850     0.0560 ca         1 MGZ      -0.138000
     16 C17         -3.0530    -1.9280     1.1660 ca         1 MGZ      -0.101000
     17 C15         -3.6280     0.1890     0.2250 ca         1 MGZ      -0.168300
     18 C18         -4.0270    -1.0230     0.7800 ca         1 MGZ      -0.152000
     19 C19         -4.6620     1.1580    -0.2580 c3         1 MGZ       0.716200
     20 F20         -4.2290     2.4240    -0.2380 f          1 MGZ      -0.244967
     21 F21         -5.0250     0.8960    -1.5240 f          1 MGZ      -0.244967
     22 F22         -5.7800     1.1150     0.4770 f          1 MGZ      -0.244967
     23 H1           5.4870    -0.2620     1.4710 ha         1 MGZ       0.130500
     24 H2           3.3090    -1.3390     1.8410 ha         1 MGZ       0.146000
     25 H3           3.7800     2.0710    -1.6950 ha         1 MGZ       0.130500
     26 H4           1.6130     0.9860    -1.3310 ha         1 MGZ       0.146000
     27 H5           0.9630    -1.3680     1.5110 h1         1 MGZ       0.040700
     28 H7          -0.9780    -2.3870     1.3240 ha         1 MGZ       0.160000
     29 H8          -1.9640     1.4230    -0.3770 ha         1 MGZ       0.149000
     30 H9          -3.3460    -2.8740     1.6010 ha         1 MGZ       0.122000
     31 H10         -5.0710    -1.2670     0.9140 ha         1 MGZ       0.129000
@<TRIPOS>BOND
     1     1     2 ar  
     2     1     3 1   
     3     1     5 ar  
     4     2     4 ar  
     5     2    23 1   
     6     4     7 ar  
     7     4    24 1   
     8     5     6 ar  
     9     5    25 1   
    10     6     7 ar  
    11     6    26 1   
    12     7     8 1   
    13     8     9 1   
    14     8    10 1   
    15     8    27 1   
    16     9    11 1   
    17     9    12 1   
    18    10    13 1   
    19    13    14 ar  
    20    13    15 ar  
    21    14    16 ar  
    22    14    28 1   
    23    15    17 ar  
    24    15    29 1   
    25    16    18 ar  
    26    16    30 1   
    27    17    18 ar  
    28    17    19 1   
    29    18    31 1   
    30    19    20 1   
    31    19    21 1   
    32    19    22 1   
@<TRIPOS>SUBSTRUCTURE
     1 MGZ         1 TEMP              0 ****  ****    0 ROOT
