@<TRIPOS>MOLECULE
MH1
   22    22     1     0     0
SMALL
abcg2


@<TRIPOS>ATOM
      1 N           -1.1750     1.4220    -0.9670 n8         1 MH1      -0.994200
      2 C2           4.3450     0.6730     0.2290 c3         1 MH1       0.069900
      3 C           -2.9650    -0.0900     0.0210 c          1 MH1       0.689000
      4 NE2          3.0170     0.1200     0.1030 na         1 MH1      -0.182500
      5 CD2          1.8860     0.5580     0.7380 cc         1 MH1      -0.253000
      6 CE1          2.6540    -0.9380    -0.6460 cc         1 MH1       0.367400
      7 ND1          1.3760    -1.2050    -0.5340 nd         1 MH1      -0.665000
      8 CG           0.8770    -0.2710     0.3330 cd         1 MH1       0.304300
      9 CB          -0.5610    -0.2400     0.7170 c3         1 MH1      -0.083700
     10 CA          -1.5010     0.1050    -0.4470 c3         1 MH1       0.016500
     11 O           -3.6700     0.9290     0.1620 o          1 MH1      -0.736500
     12 HN          -1.7670     1.6080    -1.7670 hn         1 MH1       0.377000
     13 HNA         -1.4650     2.1100    -0.2800 hn         1 MH1       0.377000
     14 H2           4.7110     0.5710     1.2490 h1         1 MH1       0.038367
     15 H2A          5.0170     0.1390    -0.4380 h1         1 MH1       0.038367
     16 H2B          4.3500     1.7260    -0.0440 h1         1 MH1       0.038367
     17 OXT         -3.3130    -1.2700     0.2420 o          1 MH1      -0.736500
     18 HB          -0.8550    -1.2110     1.1210 hc         1 MH1       0.049700
     19 HBA         -0.7020     0.4890     1.5220 hc         1 MH1       0.049700
     20 HA          -1.3090    -0.6230    -1.2420 h1         1 MH1       0.056700
     21 HD2          1.8950     1.4040     1.4070 h4         1 MH1       0.146000
     22 HE1          3.3650    -1.4790    -1.2520 h5         1 MH1       0.032100
@<TRIPOS>BOND
     1     1    10 1   
     2     1    12 1   
     3     1    13 1   
     4     2     4 1   
     5     2    14 1   
     6     2    15 1   
     7     2    16 1   
     8     3    10 1   
     9     3    11 1   
    10     3    17 1   
    11     4     5 1   
    12     4     6 1   
    13     5     8 2   
    14     5    21 1   
    15     6     7 2   
    16     6    22 1   
    17     7     8 1   
    18     8     9 1   
    19     9    10 1   
    20     9    18 1   
    21     9    19 1   
    22    10    20 1   
@<TRIPOS>SUBSTRUCTURE
     1 MH1         1 TEMP              0 ****  ****    0 ROOT
