@<TRIPOS>MOLECULE
MH1
   22    22     1     0     0
SMALL
No Charge or Current Charge


@<TRIPOS>ATOM
      1 N           -1.2300     1.5510    -0.9170 n8         1 MH1      -0.994200
      2 C2           4.3770     0.7070     0.1200 c3         1 MH1       0.069900
      3 C           -2.9940    -0.1860    -0.0580 c          1 MH1       0.689000
      4 NE2          3.0440     0.0910     0.1170 na         1 MH1      -0.182500
      5 CD2          1.8840     0.6460     0.6110 cc         1 MH1      -0.253000
      6 CE1          2.7250    -1.1590    -0.3740 cc         1 MH1       0.367400
      7 ND1          1.4360    -1.4130    -0.2140 nd         1 MH1      -0.665000
      8 CG           0.9050    -0.2870     0.3850 cd         1 MH1       0.304300
      9 CB          -0.5530    -0.1980     0.7600 c3         1 MH1      -0.083700
     10 CA          -1.4900     0.1470    -0.4270 c3         1 MH1       0.016500
     11 O           -3.5750     0.5430     0.7360 o          1 MH1      -0.736500
     12 HN          -1.8180     1.7320    -1.7410 hn         1 MH1       0.377000
     13 HNA         -1.5990     2.2090    -0.2200 hn         1 MH1       0.377000
     14 H2           4.8820     0.4830     1.0680 h1         1 MH1       0.038367
     15 H2A          4.9730     0.3080    -0.7110 h1         1 MH1       0.038367
     16 H2B          4.2830     1.7940     0.0070 h1         1 MH1       0.038367
     17 OXT         -3.5510    -1.0960    -0.6580 o          1 MH1      -0.736500
     18 HB          -0.8670    -1.1610     1.1820 hc         1 MH1       0.049700
     19 HBA         -0.6900     0.5380     1.5600 hc         1 MH1       0.049700
     20 HA          -1.2280    -0.5330    -1.2500 h1         1 MH1       0.056700
     21 HD2          1.8350     1.6260     1.0670 h4         1 MH1       0.146000
     22 HE1          3.4630    -1.8170    -0.8170 h5         1 MH1       0.032100
@<TRIPOS>BOND
     1     1    10 1   
     2     1    12 1   
     3     1    13 1   
     4     2     4 1   
     5     2    14 1   
     6     2    15 1   
     7     2    16 1   
     8     3    10 1   
     9     3    11 1   
    10     3    17 1   
    11     4     5 1   
    12     4     6 1   
    13     5     8 2   
    14     5    21 1   
    15     6     7 2   
    16     6    22 1   
    17     7     8 1   
    18     8     9 1   
    19     9    10 1   
    20     9    18 1   
    21     9    19 1   
    22    10    20 1   
@<TRIPOS>SUBSTRUCTURE
     1 MH1         1 TEMP              0 ****  ****    0 ROOT
