@<TRIPOS>MOLECULE
MH4
   72    77     1     0     0
SMALL
No Charge or Current Charge


@<TRIPOS>ATOM
      1 O23          5.7800    -2.8300     0.0250 o          1 MH4      -0.608100
      2 C21          5.5390    -1.6320     0.1350 c          1 MH4       0.534600
      3 N22          6.5550    -0.7000     0.1050 ns         1 MH4      -0.497900
      4 C32          7.9720    -1.0150    -0.0530 c3         1 MH4       0.152300
      5 C33          8.8160     0.2480    -0.0600 ca         1 MH4      -0.072300
      6 C38          9.3610     0.7690     1.1270 ca         1 MH4      -0.157000
      7 C37         10.1320     1.9430     1.0750 ca         1 MH4       0.340900
      8 N36         10.3810     2.6110    -0.0750 nb         1 MH4      -0.670000
      9 C35          9.8540     2.1160    -1.2190 ca         1 MH4       0.354300
     10 C39         10.1590     2.8930    -2.4860 c3         1 MH4      -0.144400
     11 C34          9.0730     0.9450    -1.2540 ca         1 MH4      -0.149000
     12 C20          4.1740    -1.0130     0.3060 cc         1 MH4       0.192500
     13 C16          2.9710    -1.7570     0.3670 cc         1 MH4      -0.098300
     14 C8           2.7700    -3.2520     0.2400 c6         1 MH4       0.000900
     15 N19          3.9520     0.2980     0.3980 nd         1 MH4      -0.514800
     16 N18          2.5690     0.3910     0.4990 na         1 MH4       0.190800
     17 C24          1.9160     1.7040     0.6140 c3         1 MH4       0.075900
     18 C17          1.9570    -0.8670     0.4850 cd         1 MH4      -0.250500
     19 C10          0.5490    -1.2600     0.5160 ca         1 MH4       0.244500
     20 N15         -0.4200    -0.3290     0.4280 nb         1 MH4      -0.260000
     21 C14         -1.6850    -0.7810     0.4180 ca         1 MH4       0.391900
     22 N13         -2.0800    -2.0660     0.5090 nb         1 MH4      -0.228000
     23 C12         -1.1070    -2.9930     0.5980 ca         1 MH4       0.150900
     24 C11          0.2510    -2.6340     0.5980 ca         1 MH4      -0.221300
     25 C9           1.3670    -3.6830     0.7730 c6         1 MH4      -0.012100
     26 N1          -2.6530     0.2150     0.3560 nu         1 MH4      -0.925900
     27 C2          -4.0450     0.2250     0.2070 ca         1 MH4       0.281000
     28 C7          -4.7680     1.3270     0.6960 ca         1 MH4      -0.120000
     29 C6          -6.1680     1.3860     0.5580 ca         1 MH4      -0.130500
     30 C5          -6.8730     0.3490    -0.0820 ca         1 MH4       0.264000
     31 C4          -6.1440    -0.7470    -0.5900 ca         1 MH4      -0.130500
     32 C3          -4.7450    -0.8070    -0.4490 ca         1 MH4      -0.120000
     33 N25         -8.2800     0.4280    -0.2140 nh         1 MH4      -0.781400
     34 C30         -9.0030    -0.2890    -1.3140 c6         1 MH4       0.194300
     35 C29        -10.4090     0.3280    -1.6150 c6         1 MH4       0.157800
     36 N28        -11.2630     0.4490    -0.3940 n3         1 MH4      -0.713600
     37 C31        -12.6060     0.9920    -0.6880 c3         1 MH4       0.152100
     38 C27        -10.5390     1.2350     0.6520 c6         1 MH4       0.157800
     39 C26         -9.1360     0.6380     0.9990 c6         1 MH4       0.194300
     40 H22          6.2740     0.2700     0.2000 hn         1 MH4       0.338500
     41 H321         8.2860    -1.6690     0.7720 h1         1 MH4       0.060200
     42 H322         8.1140    -1.5630    -0.9940 h1         1 MH4       0.060200
     43 H38          9.1920     0.2770     2.0820 ha         1 MH4       0.128000
     44 H34          8.6740     0.5870    -2.1990 ha         1 MH4       0.126000
     45 H37         10.5640     2.3620     1.9830 h4         1 MH4       0.020100
     46 H391        11.1370     2.6080    -2.8900 hc         1 MH4       0.051700
     47 H392         9.4070     2.7010    -3.2600 hc         1 MH4       0.051700
     48 H393        10.1720     3.9730    -2.3000 hc         1 MH4       0.051700
     49 H81C         2.8580    -3.5440    -0.8160 hc         1 MH4       0.070700
     50 H82C         3.5400    -3.8160     0.7820 hc         1 MH4       0.070700
     51 H91C         1.0740    -4.6310     0.3020 hc         1 MH4       0.054200
     52 H92C         1.4570    -3.9000     1.8460 hc         1 MH4       0.054200
     53 H241         1.2970     1.8810    -0.2720 h1         1 MH4       0.065700
     54 H242         1.2870     1.7210     1.5120 h1         1 MH4       0.065700
     55 H243         2.6730     2.4930     0.6900 h1         1 MH4       0.065700
     56 H1          -2.2550     1.1380     0.5270 hn         1 MH4       0.506000
     57 H12         -1.4230    -4.0320     0.6830 h4         1 MH4       0.025100
     58 H7          -4.2470     2.1410     1.1930 ha         1 MH4       0.126500
     59 H3          -4.2120    -1.6530    -0.8710 ha         1 MH4       0.126500
     60 H6          -6.7040     2.2500     0.9390 ha         1 MH4       0.115500
     61 H4          -6.6560    -1.5620    -1.0920 ha         1 MH4       0.115500
     62 H301        -8.4110    -0.2580    -2.2410 h1         1 MH4       0.043700
     63 H302        -9.1350    -1.3470    -1.0440 h1         1 MH4       0.043700
     64 H261        -9.2830    -0.3240     1.5130 h1         1 MH4       0.043700
     65 H262        -8.6440     1.3120     1.7150 h1         1 MH4       0.043700
     66 H291       -10.2620     1.3190    -2.0690 h1         1 MH4       0.039700
     67 H292       -10.9090    -0.2970    -2.3680 h1         1 MH4       0.039700
     68 H311       -13.1250     0.3630    -1.4250 h1         1 MH4       0.031700
     69 H312       -13.2200     1.0230     0.2220 h1         1 MH4       0.031700
     70 H313       -12.5380     2.0110    -1.0920 h1         1 MH4       0.031700
     71 H271       -10.3990     2.2720     0.3120 h1         1 MH4       0.039700
     72 H272       -11.1360     1.2810     1.5740 h1         1 MH4       0.039700
@<TRIPOS>BOND
     1     1     2 2   
     2     2     3 1   
     3     2    12 1   
     4     3     4 1   
     5     3    40 1   
     6     4     5 1   
     7     4    41 1   
     8     4    42 1   
     9     5     6 ar  
    10     5    11 ar  
    11     6     7 ar  
    12     6    43 1   
    13     7     8 ar  
    14     7    45 1   
    15     8     9 ar  
    16     9    10 1   
    17     9    11 ar  
    18    10    46 1   
    19    10    47 1   
    20    10    48 1   
    21    11    44 1   
    22    12    13 1   
    23    12    15 2   
    24    13    14 1   
    25    13    18 2   
    26    14    25 1   
    27    14    49 1   
    28    14    50 1   
    29    15    16 1   
    30    16    17 1   
    31    16    18 1   
    32    17    53 1   
    33    17    54 1   
    34    17    55 1   
    35    18    19 1   
    36    19    20 ar  
    37    19    24 ar  
    38    20    21 ar  
    39    21    22 ar  
    40    21    26 1   
    41    22    23 ar  
    42    23    24 ar  
    43    23    57 1   
    44    24    25 1   
    45    25    51 1   
    46    25    52 1   
    47    26    27 1   
    48    26    56 1   
    49    27    28 ar  
    50    27    32 ar  
    51    28    29 ar  
    52    28    58 1   
    53    29    30 ar  
    54    29    60 1   
    55    30    31 ar  
    56    30    33 1   
    57    31    32 ar  
    58    31    61 1   
    59    32    59 1   
    60    33    34 1   
    61    33    39 1   
    62    34    35 1   
    63    34    62 1   
    64    34    63 1   
    65    35    36 1   
    66    35    66 1   
    67    35    67 1   
    68    36    37 1   
    69    36    38 1   
    70    37    68 1   
    71    37    69 1   
    72    37    70 1   
    73    38    39 1   
    74    38    71 1   
    75    38    72 1   
    76    39    64 1   
    77    39    65 1   
@<TRIPOS>SUBSTRUCTURE
     1 MH4         1 TEMP              0 ****  ****    0 ROOT
