@<TRIPOS>MOLECULE
MH4
   72    77     1     0     0
SMALL
bcc


@<TRIPOS>ATOM
      1 O23          5.7230    -2.7980    -0.2690 o          1 MH4      -0.608100
      2 C21          5.4810    -1.6260    -0.0060 c          1 MH4       0.601600
      3 N22          6.4320    -0.6840     0.0760 ns         1 MH4      -0.564900
      4 C32          7.8280    -0.9830    -0.1690 c3         1 MH4       0.152300
      5 C33          8.6390     0.2760    -0.0490 ca         1 MH4      -0.072300
      6 C38          9.0720     0.7400     1.1870 ca         1 MH4      -0.240300
      7 C37          9.7900     1.9240     1.2300 ca         1 MH4       0.406200
      8 N36         10.0910     2.6430     0.1570 nb         1 MH4      -0.670000
      9 C35          9.6810     2.2080    -1.0340 ca         1 MH4       0.419600
     10 C39         10.0490     3.0380    -2.2250 c3         1 MH4      -0.144400
     11 C34          8.9510     1.0310    -1.1710 ca         1 MH4      -0.232300
     12 C20          4.1000    -1.1600     0.2320 cc         1 MH4       0.257800
     13 C16          2.9190    -1.9130     0.2000 cc         1 MH4      -0.163600
     14 C8           2.5930    -3.3400    -0.0920 c6         1 MH4       0.000900
     15 N19          3.8400     0.1150     0.5070 nd         1 MH4      -0.514800
     16 N18          2.5370     0.2140     0.6360 na         1 MH4       0.169400
     17 C24          1.9340     1.4980     0.9310 c3         1 MH4       0.046600
     18 C17          1.9310    -0.9840     0.4580 cd         1 MH4      -0.199800
     19 C10          0.5190    -1.3100     0.4310 ca         1 MH4       0.572800
     20 N15         -0.3960    -0.3620     0.3580 nb         1 MH4      -0.786000
     21 C14         -1.6710    -0.7600     0.2690 ca         1 MH4       0.917900
     22 N13         -2.0790    -2.0220     0.2220 nb         1 MH4      -0.754000
     23 C12         -1.1370    -2.9560     0.3070 ca         1 MH4       0.479200
     24 C11          0.2090    -2.6790     0.4280 ca         1 MH4      -0.351900
     25 C9           1.2800    -3.7180     0.6010 c6         1 MH4      -0.012100
     26 N1          -2.5710     0.2560     0.2220 nu         1 MH4      -0.732300
     27 C2          -3.9610     0.2460     0.0980 ca         1 MH4       0.142600
     28 C7          -4.6280     1.4500     0.3530 ca         1 MH4      -0.138000
     29 C6          -5.9950     1.5600     0.2180 ca         1 MH4      -0.148500
     30 C5          -6.7830     0.4640    -0.1650 ca         1 MH4       0.125600
     31 C4          -6.1110    -0.7350    -0.4070 ca         1 MH4      -0.148500
     32 C3          -4.7300    -0.8470    -0.2920 ca         1 MH4      -0.138000
     33 N25         -8.1650     0.6110    -0.3230 nh         1 MH4      -0.643000
     34 C30         -8.8910    -0.5060    -0.8930 c6         1 MH4       0.194300
     35 C29        -10.2950    -0.0840    -1.2840 c6         1 MH4       0.157800
     36 N28        -11.0080     0.4640    -0.1490 n3         1 MH4      -0.713600
     37 C31        -12.3730     0.7970    -0.4850 c3         1 MH4       0.152100
     38 C27        -10.2890     1.6070     0.3720 c6         1 MH4       0.157800
     39 C26         -8.8870     1.2120     0.7910 c6         1 MH4       0.194300
     40 H22          6.1610     0.2660     0.2810 hn         1 MH4       0.338500
     41 H321         8.1850    -1.7290     0.5450 h1         1 MH4       0.060200
     42 H322         7.9520    -1.4070    -1.1690 h1         1 MH4       0.060200
     43 H38          8.8630     0.1950     2.0980 ha         1 MH4       0.146000
     44 H34          8.6340     0.7040    -2.1540 ha         1 MH4       0.144000
     45 H37         10.1410     2.3080     2.1820 h4         1 MH4       0.020100
     46 H391        11.1310     3.0570    -2.3620 hc         1 MH4       0.051700
     47 H392         9.6020     2.6510    -3.1390 hc         1 MH4       0.051700
     48 H393         9.7230     4.0700    -2.0950 hc         1 MH4       0.051700
     49 H81C         2.5010    -3.4770    -1.1740 hc         1 MH4       0.070700
     50 H82C         3.3900    -4.0030     0.2380 hc         1 MH4       0.070700
     51 H91C         0.9280    -4.6830     0.2360 hc         1 MH4       0.054200
     52 H92C         1.4750    -3.8440     1.6720 hc         1 MH4       0.054200
     53 H241         1.4050     1.8820     0.0620 h1         1 MH4       0.065700
     54 H242         1.2330     1.4050     1.7550 h1         1 MH4       0.065700
     55 H243         2.7310     2.1800     1.2060 h1         1 MH4       0.065700
     56 H1          -2.1520     1.1670     0.3280 hn         1 MH4       0.450800
     57 H12         -1.4820    -3.9850     0.2760 h4         1 MH4       0.025100
     58 H7          -4.0600     2.3240     0.6510 ha         1 MH4       0.144500
     59 H3          -4.2660    -1.7980    -0.4970 ha         1 MH4       0.144500
     60 H6          -6.4510     2.5240     0.4030 ha         1 MH4       0.133500
     61 H4          -6.6550    -1.6240    -0.6940 ha         1 MH4       0.133500
     62 H301        -8.3760    -0.8500    -1.7910 h1         1 MH4       0.043700
     63 H302        -8.9470    -1.3590    -0.1980 h1         1 MH4       0.043700
     64 H261        -8.9420     0.5140     1.6410 h1         1 MH4       0.043700
     65 H262        -8.3670     2.1030     1.1360 h1         1 MH4       0.043700
     66 H291       -10.2360     0.6410    -2.1150 h1         1 MH4       0.039700
     67 H292       -10.8310    -0.9600    -1.6570 h1         1 MH4       0.039700
     68 H311       -12.8980    -0.0920    -0.8380 h1         1 MH4       0.031700
     69 H312       -12.8960     1.1640     0.3990 h1         1 MH4       0.031700
     70 H313       -12.4540     1.5670    -1.2670 h1         1 MH4       0.031700
     71 H271       -10.2300     2.4240    -0.3680 h1         1 MH4       0.039700
     72 H272       -10.8180     1.9980     1.2450 h1         1 MH4       0.039700
@<TRIPOS>BOND
     1     1     2 2   
     2     2     3 1   
     3     2    12 1   
     4     3     4 1   
     5     3    40 1   
     6     4     5 1   
     7     4    41 1   
     8     4    42 1   
     9     5     6 ar  
    10     5    11 ar  
    11     6     7 ar  
    12     6    43 1   
    13     7     8 ar  
    14     7    45 1   
    15     8     9 ar  
    16     9    10 1   
    17     9    11 ar  
    18    10    46 1   
    19    10    47 1   
    20    10    48 1   
    21    11    44 1   
    22    12    13 1   
    23    12    15 2   
    24    13    14 1   
    25    13    18 2   
    26    14    25 1   
    27    14    49 1   
    28    14    50 1   
    29    15    16 1   
    30    16    17 1   
    31    16    18 1   
    32    17    53 1   
    33    17    54 1   
    34    17    55 1   
    35    18    19 1   
    36    19    20 ar  
    37    19    24 ar  
    38    20    21 ar  
    39    21    22 ar  
    40    21    26 1   
    41    22    23 ar  
    42    23    24 ar  
    43    23    57 1   
    44    24    25 1   
    45    25    51 1   
    46    25    52 1   
    47    26    27 1   
    48    26    56 1   
    49    27    28 ar  
    50    27    32 ar  
    51    28    29 ar  
    52    28    58 1   
    53    29    30 ar  
    54    29    60 1   
    55    30    31 ar  
    56    30    33 1   
    57    31    32 ar  
    58    31    61 1   
    59    32    59 1   
    60    33    34 1   
    61    33    39 1   
    62    34    35 1   
    63    34    62 1   
    64    34    63 1   
    65    35    36 1   
    66    35    66 1   
    67    35    67 1   
    68    36    37 1   
    69    36    38 1   
    70    37    68 1   
    71    37    69 1   
    72    37    70 1   
    73    38    39 1   
    74    38    71 1   
    75    38    72 1   
    76    39    64 1   
    77    39    65 1   
@<TRIPOS>SUBSTRUCTURE
     1 MH4         1 TEMP              0 ****  ****    0 ROOT
