@<TRIPOS>MOLECULE
MH5
   29    30     1     0     0
SMALL
No Charge or Current Charge


@<TRIPOS>ATOM
      1 N1           6.6970   -16.9730   101.2130 nu         1 MH5      -0.934200
      2 C4           7.9520   -19.7350   100.0200 cc         1 MH5      -0.152000
      3 C5           7.2580   -19.3170   101.1280 cd         1 MH5      -0.248300
      4 C6           6.1270   -18.3280   101.1960 c3         1 MH5       0.273100
      5 C7           7.4880   -16.4370   102.2300 ca         1 MH5       0.243000
      6 C8           8.5500   -15.5890   101.8830 ca         1 MH5      -0.195000
      7 C10          9.1220   -15.3270   104.2330 ca         1 MH5      -0.116000
      8 C2           9.0440   -21.0140   101.6360 cd         1 MH5      -0.230300
      9 C3           8.9570   -20.6900   100.3070 cc         1 MH5      -0.152000
     10 S1           7.8470   -20.1200   102.5990 ss         1 MH5       0.292000
     11 C9           9.3670   -15.0360   102.8810 ca         1 MH5      -0.116000
     12 C11          8.0510   -16.1740   104.6090 ca         1 MH5      -0.108600
     13 C12          7.2380   -16.7210   103.5850 ca         1 MH5      -0.139000
     14 O1           6.8650   -17.2520   106.3520 o          1 MH5      -0.721000
     15 O2           8.4870   -15.9680   106.9270 o          1 MH5      -0.721000
     16 H1           6.9210   -16.6050   100.2890 hn         1 MH5       0.436000
     17 H2           7.7610   -19.3790    99.0120 ha         1 MH5       0.117000
     18 H5           5.4820   -18.4590   100.3150 h1         1 MH5       0.059700
     19 H6           5.5130   -18.5150   102.0890 h1         1 MH5       0.059700
     20 H7           8.7490   -15.3610   100.8400 ha         1 MH5       0.081000
     21 H8           9.7670   -14.8890   104.9920 ha         1 MH5       0.127000
     22 H9           9.4450   -22.7930   102.7890 hc         1 MH5       0.039700
     23 H10         10.6660   -22.4420   101.5540 hc         1 MH5       0.039700
     24 H11         10.6110   -21.4820   103.0420 hc         1 MH5       0.039700
     25 H13          9.5900   -21.1150    99.5330 ha         1 MH5       0.115000
     26 H15         10.1920   -14.3820   102.6080 ha         1 MH5       0.083000
     27 H16          6.4050   -17.3650   103.8490 ha         1 MH5       0.130000
     28 C13          7.7800   -16.4880   106.0750 c          1 MH5       0.712600
     29 C1           9.9920   -21.9850   102.2900 c3         1 MH5      -0.013800
@<TRIPOS>BOND
     1     1     4 1   
     2     1     5 1   
     3     1    16 1   
     4     2     3 2   
     5     2     9 1   
     6     2    17 1   
     7     3     4 1   
     8     3    10 1   
     9     4    18 1   
    10     4    19 1   
    11     5     6 ar  
    12     5    13 ar  
    13     6    11 ar  
    14     6    20 1   
    15     7    11 ar  
    16     7    12 ar  
    17     7    21 1   
    18     8     9 2   
    19     8    10 1   
    20     8    29 1   
    21     9    25 1   
    22    11    26 1   
    23    12    13 ar  
    24    12    28 1   
    25    13    27 1   
    26    14    28 1   
    27    15    28 1   
    28    22    29 1   
    29    23    29 1   
    30    24    29 1   
@<TRIPOS>SUBSTRUCTURE
     1 MH5         1 TEMP              0 ****  ****    0 ROOT
