@<TRIPOS>MOLECULE
MH5
   29    30     1     0     0
SMALL
bcc


@<TRIPOS>ATOM
      1 N1           7.0050   -16.8560   101.1140 nu         1 MH5      -0.740600
      2 C4           7.4890   -20.2170   100.0700 cc         1 MH5      -0.170000
      3 C5           7.3340   -19.3190   101.0820 cd         1 MH5      -0.103400
      4 C6           6.3810   -18.1600   101.1260 c3         1 MH5       0.273100
      5 C7           7.6630   -16.3500   102.2240 ca         1 MH5       0.104600
      6 C8           8.6690   -15.3920   102.0490 ca         1 MH5      -0.213000
      7 C10          8.9600   -15.2110   104.4370 ca         1 MH5      -0.134000
      8 C2           9.1110   -21.0250   101.5290 cd         1 MH5      -0.085400
      9 C3           8.4980   -21.1880   100.3240 cc         1 MH5      -0.170000
     10 S1           8.4410   -19.6690   102.3640 ss         1 MH5       0.002200
     11 C9           9.3030   -14.8320   103.1460 ca         1 MH5      -0.134000
     12 C11          7.9660   -16.1660   104.6330 ca         1 MH5      -0.108600
     13 C12          7.3290   -16.7250   103.5300 ca         1 MH5      -0.157000
     14 O1           6.6860   -17.4820   106.1240 o          1 MH5      -0.826300
     15 O2           8.1620   -16.0490   106.9860 o          1 MH5      -0.826300
     16 H1           7.4820   -16.6650   100.2460 hn         1 MH5       0.380800
     17 H2           6.8970   -20.1860    99.1650 ha         1 MH5       0.135000
     18 H5           5.7400   -18.2310   100.2460 h1         1 MH5       0.059700
     19 H6           5.7140   -18.2350   101.9860 h1         1 MH5       0.059700
     20 H7           8.9520   -15.0880   101.0470 ha         1 MH5       0.099000
     21 H8           9.4630   -14.7730   105.2880 ha         1 MH5       0.145000
     22 H9           9.9170   -22.2730   103.0840 hc         1 MH5       0.039700
     23 H10         10.4860   -22.6440   101.4590 hc         1 MH5       0.039700
     24 H11         11.1030   -21.2320   102.3110 hc         1 MH5       0.039700
     25 H13          8.7620   -21.9780    99.6330 ha         1 MH5       0.133000
     26 H15         10.0790   -14.0940   102.9860 ha         1 MH5       0.101000
     27 H16          6.5580   -17.4610   103.7130 ha         1 MH5       0.148000
     28 C13          7.5680   -16.6060   106.0420 c          1 MH5       0.923200
     29 C1          10.2100   -21.8320   102.1310 c3         1 MH5      -0.013800
@<TRIPOS>BOND
     1     1     4 1   
     2     1     5 1   
     3     1    16 1   
     4     2     3 2   
     5     2     9 1   
     6     2    17 1   
     7     3     4 1   
     8     3    10 1   
     9     4    18 1   
    10     4    19 1   
    11     5     6 ar  
    12     5    13 ar  
    13     6    11 ar  
    14     6    20 1   
    15     7    11 ar  
    16     7    12 ar  
    17     7    21 1   
    18     8     9 2   
    19     8    10 1   
    20     8    29 1   
    21     9    25 1   
    22    11    26 1   
    23    12    13 ar  
    24    12    28 1   
    25    13    27 1   
    26    14    28 1   
    27    15    28 1   
    28    22    29 1   
    29    23    29 1   
    30    24    29 1   
@<TRIPOS>SUBSTRUCTURE
     1 MH5         1 TEMP              0 ****  ****    0 ROOT
