@<TRIPOS>MOLECULE
MH6
   11    10     1     0     0
SMALL
No Charge or Current Charge


@<TRIPOS>ATOM
      1 N            0.4790     1.6440     0.0090 n2         1 MH6      -0.740100
      2 CA           0.2240     0.3570     0.0160 ce         1 MH6       0.326300
      3 C           -1.2230    -0.1950     0.0260 c          1 MH6       0.628700
      4 CB           1.3670    -0.6710     0.0130 c3         1 MH6       0.052300
      5 OG           2.6900    -0.0780     0.0030 oh         1 MH6      -0.688000
      6 O           -1.3970    -1.4100     0.0320 o          1 MH6      -0.709000
      7 OXT         -2.1740     0.5840     0.0280 o          1 MH6      -0.709000
      8 H            1.5050     1.7490     0.0020 hn         1 MH6       0.336400
      9 HB2          1.2530    -1.3100     0.9000 h1         1 MH6       0.039700
     10 HB3          1.2430    -1.3170    -0.8660 h1         1 MH6       0.039700
     11 HG           3.3420    -0.8150     0.0030 ho         1 MH6       0.423000
@<TRIPOS>BOND
     1     1     2 2   
     2     1     8 1   
     3     2     3 1   
     4     2     4 1   
     5     3     6 1   
     6     3     7 1   
     7     4     5 1   
     8     4     9 1   
     9     4    10 1   
    10     5    11 1   
@<TRIPOS>SUBSTRUCTURE
     1 MH6         1 TEMP              0 ****  ****    0 ROOT
