@<TRIPOS>MOLECULE
MH6
   11    10     1     0     0
SMALL
bcc


@<TRIPOS>ATOM
      1 N            0.4750     1.5940     0.0310 n2         1 MH6      -0.740100
      2 CA           0.2620     0.3470     0.0180 ce         1 MH6       0.326300
      3 C           -1.1790    -0.1880     0.0220 c          1 MH6       0.839300
      4 CB           1.3460    -0.6990     0.0070 c3         1 MH6       0.029100
      5 OG           2.6040    -0.0730    -0.0240 oh         1 MH6      -0.625800
      6 O           -1.2780    -1.4290     0.0760 o          1 MH6      -0.814300
      7 OXT         -2.0950     0.6470    -0.0270 o          1 MH6      -0.814300
      8 H            1.4770     1.7780     0.0310 hn         1 MH6       0.336400
      9 HB2          1.2230    -1.3340     0.8920 h1         1 MH6       0.039700
     10 HB3          1.1910    -1.3520    -0.8610 h1         1 MH6       0.039700
     11 HG           3.2820    -0.7530     0.0010 ho         1 MH6       0.384000
@<TRIPOS>BOND
     1     1     2 2   
     2     1     8 1   
     3     2     3 1   
     4     2     4 1   
     5     3     6 1   
     6     3     7 1   
     7     4     5 1   
     8     4     9 1   
     9     4    10 1   
    10     5    11 1   
@<TRIPOS>SUBSTRUCTURE
     1 MH6         1 TEMP              0 ****  ****    0 ROOT
