@<TRIPOS>MOLECULE
MH8
   25    24     1     0     0
SMALL
No Charge or Current Charge


@<TRIPOS>ATOM
      1 N           92.2720    85.9090     8.1840 n8         1 MH8      -0.982200
      2 CA          91.5490    86.6270     7.0730 c3         1 MH8       0.033200
      3 CB1         90.8510    85.5200     6.2250 c3         1 MH8      -0.043100
      4 CB2         90.4850    87.5440     7.7610 c3         1 MH8      -0.081400
      5 CG          89.5970    88.3880     6.8060 c3         1 MH8      -0.060400
      6 CD          88.6150    89.3280     7.5410 c3         1 MH8      -0.053200
      7 CE          87.5730    88.5840     8.3530 c2         1 MH8      -0.186200
      8 CZ          87.4180    88.6760     9.6820 c2         1 MH8      -0.354000
      9 C           92.5130    87.5250     6.1560 c          1 MH8       0.732000
     10 O           92.4590    87.4290     4.9350 o          1 MH8      -0.732000
     11 OXT         93.3650    88.2070     6.7170 o          1 MH8      -0.732000
     12 HN1         92.9880    86.5470     8.5540 hn         1 MH8       0.373500
     13 HA2         91.6270    85.7820     8.9700 hn         1 MH8       0.373500
     14 HB11        90.2780    85.9470     5.3930 hc         1 MH8       0.015033
     15 HB12        91.5910    84.8320     5.7980 hc         1 MH8       0.015033
     16 HB13        90.1570    84.9310     6.8380 hc         1 MH8       0.015033
     17 HB21        89.8320    86.9270     8.3910 hc         1 MH8       0.017200
     18 HB22        91.0020    88.2340     8.4400 hc         1 MH8       0.017200
     19 HG1         90.2360    89.0010     6.1580 hc         1 MH8       0.052200
     20 HG2         89.0210    87.7280     6.1470 hc         1 MH8       0.052200
     21 HD1         89.1870    90.0110     8.1810 hc         1 MH8       0.034700
     22 HD2         88.1120    89.9580     6.7970 hc         1 MH8       0.034700
     23 HE          86.9180    87.9370     7.7640 ha         1 MH8       0.157000
     24 HZ1         86.6440    88.1120    10.2060 ha         1 MH8       0.151000
     25 HZ2         88.0590    89.3140    10.2930 ha         1 MH8       0.151000
@<TRIPOS>BOND
     1     1     2 1   
     2     1    12 1   
     3     1    13 1   
     4     2     3 1   
     5     2     4 1   
     6     2     9 1   
     7     3    14 1   
     8     3    15 1   
     9     3    16 1   
    10     4     5 1   
    11     4    17 1   
    12     4    18 1   
    13     5     6 1   
    14     5    19 1   
    15     5    20 1   
    16     6     7 1   
    17     6    21 1   
    18     6    22 1   
    19     7     8 2   
    20     7    23 1   
    21     8    24 1   
    22     8    25 1   
    23     9    10 1   
    24     9    11 1   
@<TRIPOS>SUBSTRUCTURE
     1 MH8         1 TEMP              0 ****  ****    0 ROOT
