@<TRIPOS>MOLECULE
MH8
   25    24     1     0     0
SMALL
bcc


@<TRIPOS>ATOM
      1 N           92.3430    85.9700     8.1020 n8         1 MH8      -0.871800
      2 CA          91.5260    86.6360     7.0840 c3         1 MH8       0.033200
      3 CB1         90.7790    85.5530     6.3140 c3         1 MH8      -0.043100
      4 CB2         90.5230    87.6080     7.7410 c3         1 MH8      -0.081400
      5 CG          89.6480    88.4330     6.8020 c3         1 MH8      -0.060400
      6 CD          88.6510    89.3210     7.5530 c3         1 MH8      -0.053200
      7 CE          87.6190    88.5420     8.3050 c2         1 MH8      -0.136200
      8 CZ          87.4040    88.6130     9.6140 c2         1 MH8      -0.254000
      9 C           92.4870    87.4530     6.1750 c          1 MH8       0.942600
     10 O           92.3260    87.3840     4.9410 o          1 MH8      -0.837300
     11 OXT         93.3400    88.1440     6.7730 o          1 MH8      -0.837300
     12 HN1         92.9190    86.6710     8.5520 hn         1 MH8       0.318300
     13 HA2         91.7360    85.6000     8.8260 hn         1 MH8       0.318300
     14 HB11        90.1510    85.9630     5.5260 hc         1 MH8       0.015033
     15 HB12        91.4740    84.8490     5.8540 hc         1 MH8       0.015033
     16 HB13        90.1320    84.9860     6.9900 hc         1 MH8       0.015033
     17 HB21        89.8780    87.0210     8.4060 hc         1 MH8       0.017200
     18 HB22        91.0790    88.2940     8.3890 hc         1 MH8       0.017200
     19 HG1         90.2730    89.0710     6.1730 hc         1 MH8       0.052200
     20 HG2         89.0970    87.7780     6.1210 hc         1 MH8       0.052200
     21 HD1         89.1850    89.9850     8.2390 hc         1 MH8       0.034700
     22 HD2         88.1450    89.9650     6.8260 hc         1 MH8       0.034700
     23 HE          87.0100    87.8660     7.7080 ha         1 MH8       0.107000
     24 HZ1         86.6370    88.0230    10.0980 ha         1 MH8       0.101000
     25 HZ2         87.9880    89.2680    10.2500 ha         1 MH8       0.101000
@<TRIPOS>BOND
     1     1     2 1   
     2     1    12 1   
     3     1    13 1   
     4     2     3 1   
     5     2     4 1   
     6     2     9 1   
     7     3    14 1   
     8     3    15 1   
     9     3    16 1   
    10     4     5 1   
    11     4    17 1   
    12     4    18 1   
    13     5     6 1   
    14     5    19 1   
    15     5    20 1   
    16     6     7 1   
    17     6    21 1   
    18     6    22 1   
    19     7     8 2   
    20     7    23 1   
    21     8    24 1   
    22     8    25 1   
    23     9    10 1   
    24     9    11 1   
@<TRIPOS>SUBSTRUCTURE
     1 MH8         1 TEMP              0 ****  ****    0 ROOT
