@<TRIPOS>MOLECULE
MH9
   33    32     1     0     0
SMALL
bcc


@<TRIPOS>ATOM
      1 C           -5.6450     0.5580    -0.0540 c          1 MH9       0.904800
      2 O           -5.8200     0.5680     1.1820 o          1 MH9      -0.831800
      3 C1          -4.3020     0.1050    -0.5710 ce         1 MH9      -0.166200
      4 C2          -3.2760    -0.2280     0.2200 cf         1 MH9      -0.208000
      5 C3          -1.9760    -0.6560    -0.2590 cf         1 MH9      -0.074000
      6 C4          -0.9490    -0.9520     0.5440 c2         1 MH9      -0.244200
      7 C5           0.4100    -1.3580     0.0800 c3         1 MH9      -0.024200
      8 C6           1.4700    -0.3010     0.4020 c3         1 MH9      -0.075400
      9 C7           2.8720    -0.7180    -0.0240 c3         1 MH9      -0.074400
     10 C8           3.9190     0.3580     0.2380 c3         1 MH9      -0.075400
     11 C9           5.3220    -0.0510    -0.1920 c3         1 MH9      -0.075400
     12 C10          6.3630     1.0390     0.0320 c3         1 MH9      -0.075400
     13 C11          7.7620     0.6200    -0.3970 c3         1 MH9      -0.087100
     14 OXT         -6.4760     0.8920    -0.9260 o          1 MH9      -0.831800
     15 H1          -4.1760     0.0600    -1.6500 ha         1 MH9       0.089000
     16 H2          -3.4080    -0.1740     1.2980 ha         1 MH9       0.137000
     17 H3          -1.8430    -0.7300    -1.3360 ha         1 MH9       0.097000
     18 H4          -1.0860    -0.8680     1.6210 ha         1 MH9       0.115000
     19 H51          0.6970    -2.3000     0.5610 hc         1 MH9       0.028700
     20 H52          0.3970    -1.5470    -0.9970 hc         1 MH9       0.028700
     21 H61          1.1980     0.6360    -0.0960 hc         1 MH9       0.039700
     22 H62          1.4600    -0.0900     1.4760 hc         1 MH9       0.039700
     23 H71          3.1550    -1.6370     0.5000 hc         1 MH9       0.032200
     24 H72          2.8680    -0.9660    -1.0900 hc         1 MH9       0.032200
     25 H81          3.6300     1.2760    -0.2870 hc         1 MH9       0.036700
     26 H82          3.9240     0.6100     1.3040 hc         1 MH9       0.036700
     27 H91          5.6220    -0.9550     0.3500 hc         1 MH9       0.034200
     28 H92          5.3110    -0.3260    -1.2530 hc         1 MH9       0.034200
     29 H101         6.0640     1.9390    -0.5140 hc         1 MH9       0.036200
     30 H102         6.3730     1.3180     1.0900 hc         1 MH9       0.036200
     31 H111         8.0980    -0.2570     0.1610 hc         1 MH9       0.027700
     32 H112         7.7920     0.3650    -1.4580 hc         1 MH9       0.027700
     33 H113         8.4900     1.4140    -0.2270 hc         1 MH9       0.027700
@<TRIPOS>BOND
     1     1     2 1   
     2     1     3 1   
     3     1    14 1   
     4     3     4 2   
     5     3    15 1   
     6     4     5 1   
     7     4    16 1   
     8     5     6 2   
     9     5    17 1   
    10     6     7 1   
    11     6    18 1   
    12     7     8 1   
    13     7    19 1   
    14     7    20 1   
    15     8     9 1   
    16     8    21 1   
    17     8    22 1   
    18     9    10 1   
    19     9    23 1   
    20     9    24 1   
    21    10    11 1   
    22    10    25 1   
    23    10    26 1   
    24    11    12 1   
    25    11    27 1   
    26    11    28 1   
    27    12    13 1   
    28    12    29 1   
    29    12    30 1   
    30    13    31 1   
    31    13    32 1   
    32    13    33 1   
@<TRIPOS>SUBSTRUCTURE
     1 MH9         1 TEMP              0 ****  ****    0 ROOT
