@<TRIPOS>MOLECULE
MH9
   33    32     1     0     0
SMALL
No Charge or Current Charge


@<TRIPOS>ATOM
      1 C           -5.5300     0.7810    -0.1660 c          1 MH9       0.694200
      2 O           -5.9330     0.5140     0.9570 o          1 MH9      -0.726500
      3 C1          -4.1340     0.3950    -0.5480 ce         1 MH9      -0.216200
      4 C2          -3.2250    -0.2470     0.2460 cf         1 MH9      -0.258000
      5 C3          -1.8760    -0.6040    -0.1660 cf         1 MH9      -0.124000
      6 C4          -0.9940    -1.2380     0.6360 c2         1 MH9      -0.294200
      7 C5           0.4170    -1.6280     0.2540 c3         1 MH9      -0.024200
      8 C6           1.4090    -0.4550     0.3990 c3         1 MH9      -0.075400
      9 C7           2.8580    -0.8330     0.0200 c3         1 MH9      -0.074400
     10 C8           3.8480     0.3440     0.1660 c3         1 MH9      -0.075400
     11 C9           5.2960    -0.0340    -0.2140 c3         1 MH9      -0.075400
     12 C10          6.2860     1.1420    -0.0680 c3         1 MH9      -0.075400
     13 C11          7.7310     0.7650    -0.4460 c3         1 MH9      -0.087100
     14 OXT         -6.2090     1.3520    -1.0050 o          1 MH9      -0.726500
     15 H1          -3.8460     0.6650    -1.5610 ha         1 MH9       0.139000
     16 H2          -3.5210    -0.5160     1.2640 ha         1 MH9       0.187000
     17 H3          -1.5760    -0.3370    -1.1830 ha         1 MH9       0.147000
     18 H4          -1.2830    -1.5080     1.6540 ha         1 MH9       0.165000
     19 H51          0.7540    -2.4620     0.8830 hc         1 MH9       0.028700
     20 H52          0.4380    -1.9920    -0.7820 hc         1 MH9       0.028700
     21 H61          1.0750     0.3770    -0.2340 hc         1 MH9       0.039700
     22 H62          1.3890    -0.0960     1.4360 hc         1 MH9       0.039700
     23 H71          3.1910    -1.6640     0.6530 hc         1 MH9       0.032200
     24 H72          2.8760    -1.1920    -1.0170 hc         1 MH9       0.032200
     25 H81          3.5150     1.1750    -0.4680 hc         1 MH9       0.036700
     26 H82          3.8290     0.7030     1.2020 hc         1 MH9       0.036700
     27 H91          5.6290    -0.8660     0.4200 hc         1 MH9       0.034200
     28 H92          5.3150    -0.3940    -1.2500 hc         1 MH9       0.034200
     29 H101         5.9580     1.9750    -0.7020 hc         1 MH9       0.036200
     30 H102         6.2720     1.5030     0.9680 hc         1 MH9       0.036200
     31 H111         8.1020    -0.0430     0.1950 hc         1 MH9       0.027700
     32 H112         7.7850     0.4330    -1.4900 hc         1 MH9       0.027700
     33 H113         8.3950     1.6300    -0.3270 hc         1 MH9       0.027700
@<TRIPOS>BOND
     1     1     2 1   
     2     1     3 1   
     3     1    14 1   
     4     3     4 2   
     5     3    15 1   
     6     4     5 1   
     7     4    16 1   
     8     5     6 2   
     9     5    17 1   
    10     6     7 1   
    11     6    18 1   
    12     7     8 1   
    13     7    19 1   
    14     7    20 1   
    15     8     9 1   
    16     8    21 1   
    17     8    22 1   
    18     9    10 1   
    19     9    23 1   
    20     9    24 1   
    21    10    11 1   
    22    10    25 1   
    23    10    26 1   
    24    11    12 1   
    25    11    27 1   
    26    11    28 1   
    27    12    13 1   
    28    12    29 1   
    29    12    30 1   
    30    13    31 1   
    31    13    32 1   
    32    13    33 1   
@<TRIPOS>SUBSTRUCTURE
     1 MH9         1 TEMP              0 ****  ****    0 ROOT
