@<TRIPOS>MOLECULE
MHA
   21    20     1     0     0
SMALL
abcg2


@<TRIPOS>ATOM
      1 N1           0.0260    -0.1270    -0.0610 n3         1 MHA      -0.621600
      2 C1          -0.6200    -0.5890    -1.2710 c3         1 MHA       0.031800
      3 C2          -0.2120     0.1150    -2.5800 c          1 MHA       0.719000
      4 O1          -0.6370    -0.4330    -3.6190 o          1 MHA      -0.750500
      5 O2           0.4610     1.1600    -2.5140 o          1 MHA      -0.750500
      6 C3          -0.6180    -0.6720     1.1160 c3         1 MHA       0.031800
      7 C4          -2.0340    -0.1460     1.4290 c          1 MHA       0.719000
      8 O3          -2.6430    -0.7960     2.3050 o          1 MHA      -0.750500
      9 O4          -2.4420     0.8700     0.8400 o          1 MHA      -0.750500
     10 C5           1.4270    -0.4600    -0.0720 c3         1 MHA       0.106800
     11 C6           2.2290     0.2820     0.9840 c          1 MHA       0.599100
     12 O5           1.9460     1.4060     1.3690 o          1 MHA      -0.582100
     13 N2           3.3070    -0.3890     1.4220 nt         1 MHA      -0.645000
     14 HC11        -0.4950    -1.6790    -1.4100 h1         1 MHA       0.007200
     15 HC12        -1.6950    -0.4280    -1.1600 h1         1 MHA       0.007200
     16 HC31        -0.6560    -1.7760     1.0880 h1         1 MHA       0.007200
     17 HC32        -0.0110    -0.4290     1.9940 h1         1 MHA       0.007200
     18 HC51         1.8570    -0.1610    -1.0320 h1         1 MHA       0.026700
     19 HC52         1.6080    -1.5460     0.0210 h1         1 MHA       0.026700
     20 HN21         3.9620     0.0440     2.0520 hn         1 MHA       0.281000
     21 HN22         3.5180    -1.3190     1.1030 hn         1 MHA       0.281000
@<TRIPOS>BOND
     1     1     2 1   
     2     1     6 1   
     3     1    10 1   
     4     2     3 1   
     5     2    14 1   
     6     2    15 1   
     7     3     4 1   
     8     3     5 1   
     9     6     7 1   
    10     6    16 1   
    11     6    17 1   
    12     7     8 1   
    13     7     9 1   
    14    10    11 1   
    15    10    18 1   
    16    10    19 1   
    17    11    12 2   
    18    11    13 1   
    19    13    20 1   
    20    13    21 1   
@<TRIPOS>SUBSTRUCTURE
     1 MHA         1 TEMP              0 ****  ****    0 ROOT
