@<TRIPOS>MOLECULE
MHA
   21    20     1     0     0
SMALL
No Charge or Current Charge


@<TRIPOS>ATOM
      1 N1           0.0760    -0.0490    -0.1140 n3         1 MHA      -0.621600
      2 C1          -0.7360    -0.5300    -1.2830 c3         1 MHA       0.031800
      3 C2          -0.3860     0.0130    -2.7170 c          1 MHA       0.719000
      4 O1           0.2690    -0.6990    -3.4690 o          1 MHA      -0.750500
      5 O2          -0.7950     1.1220    -3.0420 o          1 MHA      -0.750500
      6 C3          -0.4520    -0.5490     1.2020 c3         1 MHA       0.031800
      7 C4          -1.9440    -0.2320     1.5850 c          1 MHA       0.719000
      8 O3          -2.7750    -1.1290     1.4960 o          1 MHA      -0.750500
      9 O4          -2.2220     0.8900     1.9930 o          1 MHA      -0.750500
     10 C5           1.5450    -0.3030    -0.2880 c3         1 MHA       0.106800
     11 C6           2.5190     0.2860     0.7810 c          1 MHA       0.599100
     12 O5           2.8610     1.4590     0.8160 o          1 MHA      -0.582100
     13 N2           3.0020    -0.5830     1.7050 nt         1 MHA      -0.645000
     14 HC11        -0.6810    -1.6270    -1.3270 h1         1 MHA       0.007200
     15 HC12        -1.7920    -0.2830    -1.1120 h1         1 MHA       0.007200
     16 HC31        -0.3270    -1.6390     1.2450 h1         1 MHA       0.007200
     17 HC32         0.1620    -0.1390     2.0150 h1         1 MHA       0.007200
     18 HC51         1.8780     0.1040    -1.2510 h1         1 MHA       0.026700
     19 HC52         1.7230    -1.3860    -0.3320 h1         1 MHA       0.026700
     20 HN21         3.6350    -0.2470     2.4170 hn         1 MHA       0.281000
     21 HN22         2.7170    -1.5510     1.6840 hn         1 MHA       0.281000
@<TRIPOS>BOND
     1     1     2 1   
     2     1     6 1   
     3     1    10 1   
     4     2     3 1   
     5     2    14 1   
     6     2    15 1   
     7     3     4 1   
     8     3     5 1   
     9     6     7 1   
    10     6    16 1   
    11     6    17 1   
    12     7     8 1   
    13     7     9 1   
    14    10    11 1   
    15    10    18 1   
    16    10    19 1   
    17    11    12 2   
    18    11    13 1   
    19    13    20 1   
    20    13    21 1   
@<TRIPOS>SUBSTRUCTURE
     1 MHA         1 TEMP              0 ****  ****    0 ROOT
