@<TRIPOS>MOLECULE
MHB
   30    31     1     0     0
SMALL
abcg2


@<TRIPOS>ATOM
      1 C1           0.6730    -0.0460    -1.9160 ca         1 MHB       0.074400
      2 C2          -0.2330     0.0250    -2.9800 ca         1 MHB      -0.064600
      3 C3           0.2700     0.0280    -4.2790 ca         1 MHB      -0.108000
      4 C4           1.6350    -0.0060    -4.5210 ca         1 MHB      -0.115000
      5 C5           2.5270    -0.0800    -3.4560 ca         1 MHB      -0.157000
      6 C6           2.0470    -0.1080    -2.1590 ca         1 MHB      -0.103000
      7 C7           0.3220     0.0620     1.5830 ca         1 MHB       0.076400
      8 C8           1.2090     0.1210     2.6570 ca         1 MHB      -0.054000
      9 C9           0.7820     0.0200     3.9710 ca         1 MHB      -0.130300
     10 C10         -0.5930    -0.1190     4.2030 ca         1 MHB       0.125100
     11 C11         -1.4940    -0.1550     3.1370 ca         1 MHB      -0.212000
     12 C12         -1.0430    -0.0700     1.8350 ca         1 MHB      -0.043000
     13 C           -1.7360     0.1390    -2.7640 c          1 MHB       0.719600
     14 CM3          1.7480     0.0600     5.1170 c3         1 MHB      -0.023800
     15 N1           0.1260    -0.1460    -0.6240 ne         1 MHB      -0.124400
     16 N2           0.8830     0.1760     0.3020 nf         1 MHB      -0.252400
     17 O           -2.1160     0.9950    -1.9480 o          1 MHB      -0.709500
     18 OXT         -2.4410    -0.6160    -3.4600 o          1 MHB      -0.709500
     19 O4          -0.9950    -0.2030     5.4820 oh         1 MHB      -0.545100
     20 H3          -0.4200     0.0690    -5.1120 ha         1 MHB       0.123000
     21 H4           2.0040     0.0100    -5.5390 ha         1 MHB       0.088000
     22 H5           3.5920    -0.1290    -3.6370 ha         1 MHB       0.088000
     23 H6           2.7320    -0.1980    -1.3270 ha         1 MHB       0.108000
     24 H2           2.2660     0.2400     2.4490 ha         1 MHB       0.117000
     25 H1          -2.5560    -0.2430     3.3320 ha         1 MHB       0.108000
     26 H7          -1.7460    -0.0860     1.0120 ha         1 MHB       0.168000
     27 HM31         1.5550     0.9030     5.7820 hc         1 MHB       0.033033
     28 HM32         1.6920    -0.8450     5.7240 hc         1 MHB       0.033033
     29 HM33         2.7710     0.1510     4.7540 hc         1 MHB       0.033033
     30 HO4         -1.9540    -0.2870     5.5320 ho         1 MHB       0.457000
@<TRIPOS>BOND
     1     1     2 ar  
     2     1     6 ar  
     3     1    15 1   
     4     2     3 ar  
     5     2    13 1   
     6     3     4 ar  
     7     3    20 1   
     8     4     5 ar  
     9     4    21 1   
    10     5     6 ar  
    11     5    22 1   
    12     6    23 1   
    13     7     8 ar  
    14     7    12 ar  
    15     7    16 1   
    16     8     9 ar  
    17     8    24 1   
    18     9    10 ar  
    19     9    14 1   
    20    10    11 ar  
    21    10    19 1   
    22    11    12 ar  
    23    11    25 1   
    24    12    26 1   
    25    13    17 1   
    26    13    18 1   
    27    14    27 1   
    28    14    28 1   
    29    14    29 1   
    30    15    16 2   
    31    19    30 1   
@<TRIPOS>SUBSTRUCTURE
     1 MHB         1 TEMP              0 ****  ****    0 ROOT
