@<TRIPOS>MOLECULE
MHB
   30    31     1     0     0
SMALL
No Charge or Current Charge


@<TRIPOS>ATOM
      1 C1           0.8680    -0.2920    -1.8710 ca         1 MHB       0.074400
      2 C2          -0.1090    -0.0400    -2.8660 ca         1 MHB      -0.064600
      3 C3           0.3050     0.1960    -4.1970 ca         1 MHB      -0.108000
      4 C4           1.6670     0.1680    -4.5380 ca         1 MHB      -0.115000
      5 C5           2.6310    -0.0930    -3.5530 ca         1 MHB      -0.157000
      6 C6           2.2320    -0.3210    -2.2260 ca         1 MHB      -0.103000
      7 C7           0.0710     0.3170     1.5470 ca         1 MHB       0.076400
      8 C8           1.0650     0.2010     2.5360 ca         1 MHB      -0.054000
      9 C9           0.7120    -0.0090     3.8860 ca         1 MHB      -0.130300
     10 C10         -0.6530    -0.0980     4.2360 ca         1 MHB       0.125100
     11 C11         -1.6460     0.0210     3.2500 ca         1 MHB      -0.212000
     12 C12         -1.2850     0.2300     1.9070 ca         1 MHB      -0.043000
     13 C           -1.5820    -0.0100    -2.5330 c          1 MHB       0.719600
     14 CM3          1.8050    -0.1350     4.9440 c3         1 MHB      -0.023800
     15 N1           0.5100    -0.5050    -0.5250 ne         1 MHB      -0.124400
     16 N2           0.4360     0.5340     0.1970 nf         1 MHB      -0.252400
     17 O           -2.2240     0.9780    -2.8650 o          1 MHB      -0.709500
     18 OXT         -2.0930    -1.0070    -2.0390 o          1 MHB      -0.709500
     19 O4          -1.0260    -0.2990     5.5320 oh         1 MHB      -0.545100
     20 H3          -0.4370     0.3970    -4.9660 ha         1 MHB       0.123000
     21 H4           1.9740     0.3480    -5.5660 ha         1 MHB       0.088000
     22 H5           3.6860    -0.1160    -3.8160 ha         1 MHB       0.088000
     23 H6           2.9830    -0.5160    -1.4650 ha         1 MHB       0.108000
     24 H2           2.1120     0.2720     2.2500 ha         1 MHB       0.117000
     25 H1          -2.6980    -0.0460     3.5160 ha         1 MHB       0.108000
     26 H7          -2.0540     0.3210     1.1420 ha         1 MHB       0.168000
     27 HM31         1.7050     0.6470     5.7060 hc         1 MHB       0.033033
     28 HM32         1.7520    -1.1060     5.4490 hc         1 MHB       0.033033
     29 HM33         2.8070    -0.0440     4.5090 hc         1 MHB       0.033033
     30 HO4         -2.0050    -0.3320     5.5700 ho         1 MHB       0.457000
@<TRIPOS>BOND
     1     1     2 ar  
     2     1     6 ar  
     3     1    15 1   
     4     2     3 ar  
     5     2    13 1   
     6     3     4 ar  
     7     3    20 1   
     8     4     5 ar  
     9     4    21 1   
    10     5     6 ar  
    11     5    22 1   
    12     6    23 1   
    13     7     8 ar  
    14     7    12 ar  
    15     7    16 1   
    16     8     9 ar  
    17     8    24 1   
    18     9    10 ar  
    19     9    14 1   
    20    10    11 ar  
    21    10    19 1   
    22    11    12 ar  
    23    11    25 1   
    24    12    26 1   
    25    13    17 1   
    26    13    18 1   
    27    14    27 1   
    28    14    28 1   
    29    14    29 1   
    30    15    16 2   
    31    19    30 1   
@<TRIPOS>SUBSTRUCTURE
     1 MHB         1 TEMP              0 ****  ****    0 ROOT
