@<TRIPOS>MOLECULE
MHD
   20    21     1     0     0
SMALL
abcg2


@<TRIPOS>ATOM
      1 C10         -1.4100     2.6070     0.0060 c3         1 MHD       0.068900
      2 N3          -1.0850     1.2060     0.0090 na         1 MHD      -0.085700
      3 C2          -1.9910     0.1690     0.0010 cc         1 MHD      -0.184100
      4 C4           0.1730     0.6870    -0.0200 ca         1 MHD      -0.029200
      5 C5           1.4110     1.3310    -0.0450 ca         1 MHD      -0.131000
      6 C6           2.5440     0.5420    -0.0650 ca         1 MHD      -0.087000
      7 C7           2.4590    -0.8600    -0.0530 ca         1 MHD      -0.144000
      8 C8           1.2360    -1.4960    -0.0290 ca         1 MHD      -0.056000
      9 C9           0.0720    -0.7220    -0.0210 ca         1 MHD      -0.144800
     10 C1          -1.3240    -1.0200    -0.0090 cd         1 MHD       0.050900
     11 O1          -1.9080    -2.2430     0.0330 oh         1 MHD      -0.524100
     12 H1          -1.0920     3.0920    -0.9180 h1         1 MHD       0.048033
     13 H2          -2.4860     2.7270     0.0980 h1         1 MHD       0.048033
     14 H3          -0.9440     3.1220     0.8470 h1         1 MHD       0.048033
     15 H4          -3.0520     0.3560     0.0170 h4         1 MHD       0.222000
     16 H5           1.4910     2.4110    -0.0510 ha         1 MHD       0.113000
     17 H6           3.5170     1.0140    -0.0860 ha         1 MHD       0.109000
     18 H7           3.3690    -1.4460    -0.0590 ha         1 MHD       0.111000
     19 H8           1.1860    -2.5780    -0.0080 ha         1 MHD       0.111000
     20 H9          -1.4390    -2.8400    -0.5550 ho         1 MHD       0.457000
@<TRIPOS>BOND
     1     1     2 1   
     2     1    12 1   
     3     1    13 1   
     4     1    14 1   
     5     2     3 1   
     6     2     4 1   
     7     3    10 2   
     8     3    15 1   
     9     4     5 ar  
    10     4     9 ar  
    11     5     6 ar  
    12     5    16 1   
    13     6     7 ar  
    14     6    17 1   
    15     7     8 ar  
    16     7    18 1   
    17     8     9 ar  
    18     8    19 1   
    19     9    10 1   
    20    10    11 1   
    21    11    20 1   
@<TRIPOS>SUBSTRUCTURE
     1 MHD         1 TEMP              0 ****  ****    0 ROOT
