@<TRIPOS>MOLECULE
MHD
   20    21     1     0     0
SMALL
No Charge or Current Charge


@<TRIPOS>ATOM
      1 C10         -1.3940     2.6510     0.0240 c3         1 MHD       0.068900
      2 N3          -1.1490     1.2010    -0.0130 na         1 MHD      -0.085700
      3 C2          -2.1120     0.1710    -0.0270 cc         1 MHD      -0.184100
      4 C4           0.1380     0.6690    -0.0380 ca         1 MHD      -0.029200
      5 C5           1.3810     1.3220    -0.0350 ca         1 MHD      -0.131000
      6 C6           2.5470     0.5260    -0.0650 ca         1 MHD      -0.087000
      7 C7           2.4510    -0.8860    -0.0970 ca         1 MHD      -0.144000
      8 C8           1.1900    -1.5200    -0.1000 ca         1 MHD      -0.056000
      9 C9           0.0540    -0.6980    -0.0690 ca         1 MHD      -0.144800
     10 C1          -1.3590    -0.9870    -0.0620 cd         1 MHD       0.050900
     11 O1          -1.8430    -2.2430    -0.0870 oh         1 MHD      -0.524100
     12 H1          -0.9560     3.1210    -0.8650 h1         1 MHD       0.048033
     13 H2          -2.4740     2.8450     0.0390 h1         1 MHD       0.048033
     14 H3          -0.9380     3.0790     0.9250 h1         1 MHD       0.048033
     15 H4          -3.1830     0.3390    -0.0130 h4         1 MHD       0.222000
     16 H5           1.4500     2.4070    -0.0100 ha         1 MHD       0.113000
     17 H6           3.5250     1.0020    -0.0630 ha         1 MHD       0.109000
     18 H7           3.3570    -1.4880    -0.1200 ha         1 MHD       0.111000
     19 H8           1.1110    -2.6040    -0.1240 ha         1 MHD       0.111000
     20 H9          -1.0710    -2.8480    -0.1080 ho         1 MHD       0.457000
@<TRIPOS>BOND
     1     1     2 1   
     2     1    12 1   
     3     1    13 1   
     4     1    14 1   
     5     2     3 1   
     6     2     4 1   
     7     3    10 2   
     8     3    15 1   
     9     4     5 ar  
    10     4     9 ar  
    11     5     6 ar  
    12     5    16 1   
    13     6     7 ar  
    14     6    17 1   
    15     7     8 ar  
    16     7    18 1   
    17     8     9 ar  
    18     8    19 1   
    19     9    10 1   
    20    10    11 1   
    21    11    20 1   
@<TRIPOS>SUBSTRUCTURE
     1 MHD         1 TEMP              0 ****  ****    0 ROOT
