@<TRIPOS>MOLECULE
MHE
   24    23     1     0     0
SMALL
abcg2


@<TRIPOS>ATOM
      1 C1          -2.7220    -0.3270    -0.0170 c          1 MHE       0.646000
      2 O1          -2.5820    -1.5620     0.0120 o          1 MHE      -0.700000
      3 C2          -1.4060     0.5040     0.0530 c          1 MHE       0.427100
      4 O2          -1.4510     1.7100     0.1280 o          1 MHE      -0.568100
      5 C3          -0.1060    -0.2540     0.0240 c3         1 MHE      -0.192400
      6 C4           1.1300     0.6310     0.0210 c3         1 MHE      -0.058400
      7 C5           2.4790    -0.1100     0.0040 c3         1 MHE      -0.048000
      8 C6           2.6060    -0.9970    -1.2350 c3         1 MHE      -0.079100
      9 C7           3.5880     0.9440    -0.0280 c3         1 MHE      -0.079100
     10 C8           2.6510    -0.9630     1.2620 c3         1 MHE      -0.079100
     11 O12         -3.7680     0.3320    -0.0960 o          1 MHE      -0.700000
     12 H3          -0.1100    -0.9380     0.8780 hc         1 MHE       0.062200
     13 H3A         -0.1290    -0.9110    -0.8510 hc         1 MHE       0.062200
     14 H4           1.0920     1.2950    -0.8490 hc         1 MHE       0.037700
     15 H4A          1.1090     1.2850     0.8990 hc         1 MHE       0.037700
     16 H6           2.4630    -0.4200    -2.1530 hc         1 MHE       0.025922
     17 H6A          3.5990    -1.4500    -1.2840 hc         1 MHE       0.025922
     18 H6B          1.8800    -1.8120    -1.2370 hc         1 MHE       0.025922
     19 H7           3.5350     1.5970     0.8460 hc         1 MHE       0.025922
     20 H7A          4.5750     0.4760    -0.0350 hc         1 MHE       0.025922
     21 H7B          3.5110     1.5720    -0.9180 hc         1 MHE       0.025922
     22 H8           1.9120    -1.7640     1.3230 hc         1 MHE       0.025922
     23 H8A          3.6370    -1.4330     1.2770 hc         1 MHE       0.025922
     24 H8B          2.5640    -0.3570     2.1680 hc         1 MHE       0.025922
@<TRIPOS>BOND
     1     1     2 1   
     2     1     3 1   
     3     1    11 1   
     4     3     4 2   
     5     3     5 1   
     6     5     6 1   
     7     5    12 1   
     8     5    13 1   
     9     6     7 1   
    10     6    14 1   
    11     6    15 1   
    12     7     8 1   
    13     7     9 1   
    14     7    10 1   
    15     8    16 1   
    16     8    17 1   
    17     8    18 1   
    18     9    19 1   
    19     9    20 1   
    20     9    21 1   
    21    10    22 1   
    22    10    23 1   
    23    10    24 1   
@<TRIPOS>SUBSTRUCTURE
     1 MHE         1 TEMP              0 ****  ****    0 ROOT
