@<TRIPOS>MOLECULE
MHE
   24    23     1     0     0
SMALL
No Charge or Current Charge


@<TRIPOS>ATOM
      1 C1          -2.4400     0.1940    -0.6840 c          1 MHE       0.646000
      2 O1          -2.5740    -0.8670    -1.2900 o          1 MHE      -0.700000
      3 C2          -1.4820     0.2270     0.6220 c          1 MHE       0.427100
      4 O2          -1.7960     0.8220     1.6580 o          1 MHE      -0.568100
      5 C3          -0.1310    -0.5110     0.5270 c3         1 MHE      -0.192400
      6 C4           1.0040     0.4670     0.1220 c3         1 MHE      -0.058400
      7 C5           2.4390    -0.1390    -0.0210 c3         1 MHE      -0.048000
      8 C6           2.4750    -1.2330    -1.1230 c3         1 MHE      -0.079100
      9 C7           3.4120     1.0000    -0.4250 c3         1 MHE      -0.079100
     10 C8           2.9220    -0.7470     1.3250 c3         1 MHE      -0.079100
     11 O12         -3.0170     1.2290    -1.0120 o          1 MHE      -0.700000
     12 H3           0.0970    -0.9580     1.5010 hc         1 MHE       0.062200
     13 H3A         -0.2030    -1.2840    -0.2450 hc         1 MHE       0.062200
     14 H4           0.7260     0.9400    -0.8290 hc         1 MHE       0.037700
     15 H4A          1.0380     1.2770     0.8620 hc         1 MHE       0.037700
     16 H6           2.0900    -0.8440    -2.0730 hc         1 MHE       0.025922
     17 H6A          3.5010    -1.5820    -1.2920 hc         1 MHE       0.025922
     18 H6B          1.8750    -2.1060    -0.8420 hc         1 MHE       0.025922
     19 H7           3.4270     1.7920     0.3340 hc         1 MHE       0.025922
     20 H7A          4.4360     0.6230    -0.5370 hc         1 MHE       0.025922
     21 H7B          3.1140     1.4520    -1.3790 hc         1 MHE       0.025922
     22 H8           2.3200    -1.6170     1.6110 hc         1 MHE       0.025922
     23 H8A          3.9640    -1.0790     1.2500 hc         1 MHE       0.025922
     24 H8B          2.8600    -0.0080     2.1330 hc         1 MHE       0.025922
@<TRIPOS>BOND
     1     1     2 1   
     2     1     3 1   
     3     1    11 1   
     4     3     4 2   
     5     3     5 1   
     6     5     6 1   
     7     5    12 1   
     8     5    13 1   
     9     6     7 1   
    10     6    14 1   
    11     6    15 1   
    12     7     8 1   
    13     7     9 1   
    14     7    10 1   
    15     8    16 1   
    16     8    17 1   
    17     8    18 1   
    18     9    19 1   
    19     9    20 1   
    20     9    21 1   
    21    10    22 1   
    22    10    23 1   
    23    10    24 1   
@<TRIPOS>SUBSTRUCTURE
     1 MHE         1 TEMP              0 ****  ****    0 ROOT
