@<TRIPOS>MOLECULE
MHF
   54    57     1     0     0
SMALL
No Charge or Current Charge


@<TRIPOS>ATOM
      1 N1          -0.9330    -0.9820     7.2220 na         1 MHF      -0.804200
      2 C2           0.2490    -1.3500     7.7310 cc         1 MHF       0.871100
      3 NA2          0.2350    -2.0840     8.8070 nv         1 MHF      -1.050200
      4 N3           1.3590    -1.0060     7.1950 nd         1 MHF      -0.767100
      5 C4           1.3950    -0.2300     6.0490 c          1 MHF       0.740700
      6 O4           2.4900     0.0680     5.5900 o          1 MHF      -0.547100
      7 C4A          0.0960     0.1810     5.4570 cc         1 MHF      -0.159200
      8 N5           0.0590     0.9770     4.2830 nh         1 MHF      -0.570400
      9 C6          -1.2940     1.5190     3.9490 c5         1 MHF       0.140500
     10 C7          -2.4860     0.5640     4.2800 c6         1 MHF       0.194800
     11 N8          -2.3150     0.0160     5.6460 nu         1 MHF      -0.847200
     12 C8A         -1.0600    -0.2370     6.0890 cd         1 MHF       0.326000
     13 C9          -1.1420     1.8220     2.4350 c5         1 MHF       0.245800
     14 N10         -0.1270     0.8250     1.9930 nh         1 MHF      -0.861400
     15 C11          0.7230     0.3550     3.1140 c5         1 MHF       0.488000
     16 C12          0.7290    -0.0710    -2.0900 ca         1 MHF      -0.150600
     17 C13          1.3170    -0.8140    -1.0450 ca         1 MHF      -0.033000
     18 C14          1.0340    -0.5160     0.2990 ca         1 MHF      -0.210000
     19 C15          0.1560     0.5300     0.6390 ca         1 MHF       0.332000
     20 C16         -0.4330     1.2710    -0.4030 ca         1 MHF      -0.210000
     21 C17         -0.1540     0.9800    -1.7500 ca         1 MHF      -0.033000
     22 O            1.8190    -1.3380    -3.8130 o          1 MHF      -0.643100
     23 N            0.4590     0.3540    -4.5040 ns         1 MHF      -0.421900
     24 CA           0.6030     0.1690    -5.9700 c3         1 MHF      -0.050300
     25 CB          -0.5820    -0.6260    -6.5810 c3         1 MHF      -0.054400
     26 CG          -0.7340    -2.0760    -6.0500 c3         1 MHF      -0.200400
     27 CD          -1.8640    -2.8010    -6.8060 c          1 MHF       0.712000
     28 OE1         -3.0020    -2.7110    -6.3700 o          1 MHF      -0.762000
     29 OE2         -1.5830    -3.3930    -7.8370 o          1 MHF      -0.762000
     30 CT           0.7720     1.5530    -6.6680 c          1 MHF       0.717000
     31 O1           1.7420     1.7200    -7.3940 o          1 MHF      -0.743000
     32 O2          -0.0180     2.4470    -6.3920 o          1 MHF      -0.743000
     33 HN1         -1.7510    -1.2490     7.7380 hn         1 MHF       0.488000
     34 HN21         1.1530    -2.4480     9.0250 hn         1 MHF       0.487000
     35 HN22        -0.5070    -2.7660     8.8570 hn         1 MHF       0.487000
     36 H6          -1.4740     2.4530     4.4970 h1         1 MHF       0.073700
     37 H71         -2.5020    -0.2590     3.5490 h1         1 MHF       0.059700
     38 H72         -3.4370     1.1090     4.1850 h1         1 MHF       0.059700
     39 H8          -3.0640    -0.5460     6.0510 hn         1 MHF       0.479000
     40 H91         -2.1010     1.7150     1.9080 h1         1 MHF       0.049200
     41 H92         -0.7750     2.8460     2.2790 h1         1 MHF       0.049200
     42 H111         0.7060    -0.7410     3.1880 h2         1 MHF       0.051700
     43 H112         1.7530     0.7200     3.0080 h2         1 MHF       0.051700
     44 H13          1.9990    -1.6320    -1.2700 ha         1 MHF       0.129500
     45 H14          1.5030    -1.1180     1.0700 ha         1 MHF       0.096500
     46 H16         -1.1120     2.0900    -0.1840 ha         1 MHF       0.096500
     47 H17         -0.6360     1.5840    -2.5150 ha         1 MHF       0.129500
     48 HN          -0.1300     1.1120    -4.1870 hn         1 MHF       0.294500
     49 HA           1.5270    -0.3930    -6.1600 h1         1 MHF       0.056700
     50 HB1         -1.5150    -0.0770    -6.4050 hc         1 MHF       0.049200
     51 HB2         -0.4450    -0.6650    -7.6690 hc         1 MHF       0.049200
     52 HG1          0.2290    -2.5670    -6.2380 hc         1 MHF       0.010200
     53 HG2         -0.9850    -1.9880    -4.9860 hc         1 MHF       0.010200
     54 C            1.0570    -0.4210    -3.5290 c          1 MHF       0.600700
@<TRIPOS>BOND
     1     1     2 1   
     2     1    12 1   
     3     1    33 1   
     4     2     3 1   
     5     2     4 2   
     6     3    34 1   
     7     3    35 1   
     8     4     5 1   
     9     5     6 2   
    10     5     7 1   
    11     7     8 1   
    12     7    12 2   
    13     8     9 1   
    14     8    15 1   
    15     9    10 1   
    16     9    13 1   
    17     9    36 1   
    18    10    11 1   
    19    10    37 1   
    20    10    38 1   
    21    11    12 1   
    22    11    39 1   
    23    13    14 1   
    24    13    40 1   
    25    13    41 1   
    26    14    15 1   
    27    14    19 1   
    28    15    42 1   
    29    15    43 1   
    30    16    17 ar  
    31    16    21 ar  
    32    16    54 1   
    33    17    18 ar  
    34    17    44 1   
    35    18    19 ar  
    36    18    45 1   
    37    19    20 ar  
    38    20    21 ar  
    39    20    46 1   
    40    21    47 1   
    41    22    54 2   
    42    23    24 1   
    43    23    48 1   
    44    23    54 1   
    45    24    25 1   
    46    24    30 1   
    47    24    49 1   
    48    25    26 1   
    49    25    50 1   
    50    25    51 1   
    51    26    27 1   
    52    26    52 1   
    53    26    53 1   
    54    27    28 1   
    55    27    29 1   
    56    30    31 1   
    57    30    32 1   
@<TRIPOS>SUBSTRUCTURE
     1 MHF         1 TEMP              0 ****  ****    0 ROOT
