@<TRIPOS>MOLECULE
MHF
   54    57     1     0     0
SMALL
abcg2


@<TRIPOS>ATOM
      1 N1          -0.5300    -0.6690     7.4780 na         1 MHF      -0.804200
      2 C2           0.6510    -0.2510     8.0050 cc         1 MHF       0.871100
      3 NA2          0.8570    -0.5290     9.3070 nv         1 MHF      -1.050200
      4 N3           1.5370     0.4140     7.3270 nd         1 MHF      -0.767100
      5 C4           1.2900     0.7630     6.0180 c          1 MHF       0.740700
      6 O4           2.1300     1.4050     5.3840 o          1 MHF      -0.547100
      7 C4A          0.0420     0.3470     5.4300 cc         1 MHF      -0.159200
      8 N5          -0.3000     0.7440     4.1230 nh         1 MHF      -0.570400
      9 C6          -1.7170     0.6490     3.8190 c5         1 MHF       0.140500
     10 C7          -2.3030    -0.6880     4.2850 c6         1 MHF       0.194800
     11 N8          -1.9870    -0.8940     5.6790 nu         1 MHF      -0.847200
     12 C8A         -0.8320    -0.4040     6.1690 cd         1 MHF       0.326000
     13 C9          -1.7470     0.7950     2.3060 c5         1 MHF       0.245800
     14 N10         -0.4490     0.2930     1.9110 nh         1 MHF      -0.861400
     15 C11          0.4250     0.1010     3.0420 c5         1 MHF       0.488000
     16 C12          0.6840    -0.4610    -2.0510 ca         1 MHF      -0.150600
     17 C13          1.5380    -0.7440    -0.9860 ca         1 MHF      -0.033000
     18 C14          1.1790    -0.4960     0.3230 ca         1 MHF      -0.210000
     19 C15         -0.0840     0.0480     0.6300 ca         1 MHF       0.332000
     20 C16         -0.9550     0.3180    -0.4420 ca         1 MHF      -0.210000
     21 C17         -0.5720     0.0660    -1.7440 ca         1 MHF      -0.033000
     22 O            2.1060    -1.4980    -3.6340 o          1 MHF      -0.643100
     23 N            0.4450    -0.2040    -4.4380 ns         1 MHF      -0.421900
     24 CA           0.8760    -0.2920    -5.8150 c3         1 MHF      -0.050300
     25 CB          -0.2830     0.0830    -6.7400 c3         1 MHF      -0.054400
     26 CG          -1.4630    -0.8710    -6.6540 c3         1 MHF      -0.200400
     27 CD          -2.6460    -0.5500    -7.5840 c          1 MHF       0.712000
     28 OE1         -2.5640     0.4630    -8.3060 o          1 MHF      -0.762000
     29 OE2         -3.6080    -1.3470    -7.5360 o          1 MHF      -0.762000
     30 CT           2.1150     0.5920    -6.1100 c          1 MHF       0.717000
     31 O1           2.6850     0.3560    -7.1950 o          1 MHF      -0.743000
     32 O2           2.4170     1.4650    -5.2780 o          1 MHF      -0.743000
     33 HN1         -1.1670    -1.2210     8.0340 hn         1 MHF       0.488000
     34 HN21         1.7920    -0.3940     9.6520 hn         1 MHF       0.487000
     35 HN22         0.3300    -1.2580     9.7590 hn         1 MHF       0.487000
     36 H6          -2.2560     1.4630     4.3100 h1         1 MHF       0.073700
     37 H71         -1.9010    -1.5040     3.6730 h1         1 MHF       0.059700
     38 H72         -3.3850    -0.6950     4.1660 h1         1 MHF       0.059700
     39 H8          -2.7240    -1.1560     6.3120 hn         1 MHF       0.479000
     40 H91         -2.5590     0.2120     1.8630 h1         1 MHF       0.049200
     41 H92         -1.8880     1.8390     2.0070 h1         1 MHF       0.049200
     42 H111         0.6070    -0.9710     3.2270 h2         1 MHF       0.051700
     43 H112         1.3970     0.5800     2.8940 h2         1 MHF       0.051700
     44 H13          2.5140    -1.1690    -1.1850 ha         1 MHF       0.129500
     45 H14          1.8820    -0.7330     1.1100 ha         1 MHF       0.096500
     46 H16         -1.9410     0.7250    -0.2590 ha         1 MHF       0.096500
     47 H17         -1.2950     0.2730    -2.5240 ha         1 MHF       0.129500
     48 HN          -0.1680     0.5640    -4.2170 hn         1 MHF       0.294500
     49 HA           1.1520    -1.3310    -6.0160 h1         1 MHF       0.056700
     50 HB1         -0.6080     1.1050    -6.5170 hc         1 MHF       0.049200
     51 HB2          0.1010     0.1050    -7.7600 hc         1 MHF       0.049200
     52 HG1         -1.1220    -1.8900    -6.8740 hc         1 MHF       0.010200
     53 HG2         -1.8410    -0.9160    -5.6270 hc         1 MHF       0.010200
     54 C            1.1450    -0.7590    -3.4340 c          1 MHF       0.600700
@<TRIPOS>BOND
     1     1     2 1   
     2     1    12 1   
     3     1    33 1   
     4     2     3 1   
     5     2     4 2   
     6     3    34 1   
     7     3    35 1   
     8     4     5 1   
     9     5     6 2   
    10     5     7 1   
    11     7     8 1   
    12     7    12 2   
    13     8     9 1   
    14     8    15 1   
    15     9    10 1   
    16     9    13 1   
    17     9    36 1   
    18    10    11 1   
    19    10    37 1   
    20    10    38 1   
    21    11    12 1   
    22    11    39 1   
    23    13    14 1   
    24    13    40 1   
    25    13    41 1   
    26    14    15 1   
    27    14    19 1   
    28    15    42 1   
    29    15    43 1   
    30    16    17 ar  
    31    16    21 ar  
    32    16    54 1   
    33    17    18 ar  
    34    17    44 1   
    35    18    19 ar  
    36    18    45 1   
    37    19    20 ar  
    38    20    21 ar  
    39    20    46 1   
    40    21    47 1   
    41    22    54 2   
    42    23    24 1   
    43    23    48 1   
    44    23    54 1   
    45    24    25 1   
    46    24    30 1   
    47    24    49 1   
    48    25    26 1   
    49    25    50 1   
    50    25    51 1   
    51    26    27 1   
    52    26    52 1   
    53    26    53 1   
    54    27    28 1   
    55    27    29 1   
    56    30    31 1   
    57    30    32 1   
@<TRIPOS>SUBSTRUCTURE
     1 MHF         1 TEMP              0 ****  ****    0 ROOT
