@<TRIPOS>MOLECULE
MHH
   27    26     1     0     0
SMALL
No Charge or Current Charge


@<TRIPOS>ATOM
      1 C1           0.4400    -0.6140     0.0840 c3         1 MHH      -0.426400
      2 C2          -0.8340     0.2370    -0.1240 c3         1 MHH      -0.042400
      3 C3          -2.1350    -0.5620     0.1100 c3         1 MHH      -0.072400
      4 C7           4.4390    -0.6810     0.0410 c3         1 MHH       0.214900
      5 P            2.0200     0.2870    -0.1820 p5         1 MHH       1.399400
      6 O1           3.0340    -0.9280     0.1280 os         1 MHH      -0.608400
      7 O2           2.1540     1.3930     0.8130 o          1 MHH      -0.832500
      8 C4          -3.4110     0.2840    -0.0970 c3         1 MHH      -0.077400
      9 C5          -4.7110    -0.5160     0.1380 c3         1 MHH      -0.076400
     10 C6          -5.9840     0.3270    -0.0690 c3         1 MHH      -0.086100
     11 O3           2.1170     0.7460    -1.6000 o          1 MHH      -0.832500
     12 H1           0.4670    -1.0080     1.1060 hc         1 MHH       0.044200
     13 H1A          0.4400    -1.4670    -0.6030 hc         1 MHH       0.044200
     14 H2          -0.8120     1.0960     0.5580 hc         1 MHH       0.042200
     15 H2A         -0.8390     0.6400    -1.1450 hc         1 MHH       0.042200
     16 H3          -2.1580    -1.4210    -0.5720 hc         1 MHH       0.026700
     17 H3A         -2.1320    -0.9640     1.1310 hc         1 MHH       0.026700
     18 H7           4.7440     0.0990     0.7500 h1         1 MHH       0.003700
     19 H7A          4.9990    -1.5950     0.2770 h1         1 MHH       0.003700
     20 H7B          4.7170    -0.3630    -0.9720 h1         1 MHH       0.003700
     21 H4          -3.3890     1.1420     0.5860 hc         1 MHH       0.034700
     22 H4A         -3.4150     0.6860    -1.1180 hc         1 MHH       0.034700
     23 H5          -4.7390    -1.3740    -0.5450 hc         1 MHH       0.031200
     24 H5A         -4.7120    -0.9180     1.1580 hc         1 MHH       0.031200
     25 H6          -6.0040     1.1760     0.6250 hc         1 MHH       0.023700
     26 H6A         -6.0310     0.7160    -1.0940 hc         1 MHH       0.023700
     27 H6B         -6.8790    -0.2810     0.1080 hc         1 MHH       0.023700
@<TRIPOS>BOND
     1     1     2 1   
     2     1     5 1   
     3     1    12 1   
     4     1    13 1   
     5     2     3 1   
     6     2    14 1   
     7     2    15 1   
     8     3     8 1   
     9     3    16 1   
    10     3    17 1   
    11     4     6 1   
    12     4    18 1   
    13     4    19 1   
    14     4    20 1   
    15     5     6 1   
    16     5     7 1   
    17     5    11 1   
    18     8     9 1   
    19     8    21 1   
    20     8    22 1   
    21     9    10 1   
    22     9    23 1   
    23     9    24 1   
    24    10    25 1   
    25    10    26 1   
    26    10    27 1   
@<TRIPOS>SUBSTRUCTURE
     1 MHH         1 TEMP              0 ****  ****    0 ROOT
