@<TRIPOS>MOLECULE
MHH
   27    26     1     0     0
SMALL
abcg2


@<TRIPOS>ATOM
      1 C1           0.4120    -0.6600     0.1200 c3         1 MHH      -0.426400
      2 C2          -0.8350     0.1980    -0.0840 c3         1 MHH      -0.042400
      3 C3          -2.1290    -0.5790     0.1220 c3         1 MHH      -0.072400
      4 C7           4.3980    -0.6230    -0.0020 c3         1 MHH       0.214900
      5 P            1.9390     0.2960    -0.1660 p5         1 MHH       1.399400
      6 O1           3.0270    -0.9070     0.1870 os         1 MHH      -0.608400
      7 O2           2.0690     1.3910     0.8630 o          1 MHH      -0.832500
      8 C4          -3.3770     0.2710    -0.0780 c3         1 MHH      -0.077400
      9 C5          -4.6740    -0.5050     0.1170 c3         1 MHH      -0.076400
     10 C6          -5.9140     0.3530    -0.0940 c3         1 MHH      -0.086100
     11 O3           2.0660     0.6560    -1.6260 o          1 MHH      -0.832500
     12 H1           0.4170    -1.0670     1.1360 hc         1 MHH       0.044200
     13 H1A          0.3880    -1.5150    -0.5620 hc         1 MHH       0.044200
     14 H2          -0.8080     1.0480     0.6050 hc         1 MHH       0.042200
     15 H2A         -0.8240     0.6220    -1.0920 hc         1 MHH       0.042200
     16 H3          -2.1530    -1.4280    -0.5700 hc         1 MHH       0.026700
     17 H3A         -2.1380    -1.0090     1.1300 hc         1 MHH       0.026700
     18 H7           4.7290     0.2330     0.5940 h1         1 MHH       0.003700
     19 H7A          4.9730    -1.4940     0.3120 h1         1 MHH       0.003700
     20 H7B          4.6350    -0.4160    -1.0500 h1         1 MHH       0.003700
     21 H4          -3.3560     1.1180     0.6170 hc         1 MHH       0.034700
     22 H4A         -3.3640     0.7060    -1.0830 hc         1 MHH       0.034700
     23 H5          -4.6950    -1.3530    -0.5750 hc         1 MHH       0.031200
     24 H5A         -4.6910    -0.9360     1.1230 hc         1 MHH       0.031200
     25 H6          -5.9430     1.1860     0.6110 hc         1 MHH       0.023700
     26 H6A         -5.9340     0.7750    -1.1010 hc         1 MHH       0.023700
     27 H6B         -6.8300    -0.2240     0.0390 hc         1 MHH       0.023700
@<TRIPOS>BOND
     1     1     2 1   
     2     1     5 1   
     3     1    12 1   
     4     1    13 1   
     5     2     3 1   
     6     2    14 1   
     7     2    15 1   
     8     3     8 1   
     9     3    16 1   
    10     3    17 1   
    11     4     6 1   
    12     4    18 1   
    13     4    19 1   
    14     4    20 1   
    15     5     6 1   
    16     5     7 1   
    17     5    11 1   
    18     8     9 1   
    19     8    21 1   
    20     8    22 1   
    21     9    10 1   
    22     9    23 1   
    23     9    24 1   
    24    10    25 1   
    25    10    26 1   
    26    10    27 1   
@<TRIPOS>SUBSTRUCTURE
     1 MHH         1 TEMP              0 ****  ****    0 ROOT
