@<TRIPOS>MOLECULE
MHI
   50    49     1     0     0
SMALL
abcg2


@<TRIPOS>ATOM
      1 C1          -4.3140     3.9280    -0.6620 c3         1 MHI      -0.079100
      2 N1          -6.6220     3.2970    -0.2100 n8         1 MHI      -1.009200
      3 O1          -4.9330     2.0030     1.7160 o          1 MHI      -0.651100
      4 C2          -5.3070     2.7770    -0.5290 c3         1 MHI       0.076500
      5 N2          -4.0600     0.7730     0.0350 ns         1 MHI      -0.431900
      6 C3          -4.7700     1.7980     0.5190 c          1 MHI       0.560100
      7 N3           1.0460    -0.9390    -0.2740 ns         1 MHI      -0.452900
      8 C4          -3.5250    -0.2820     0.8610 c3         1 MHI      -0.047300
      9 N4           5.0800     2.5100     0.8300 n8         1 MHI      -1.001200
     10 O4          -0.3060    -1.1000    -2.0730 o          1 MHI      -0.652100
     11 C5          -4.5980    -1.3170     1.2920 c          1 MHI       0.720000
     12 C6          -2.3730    -0.9660     0.1280 c3         1 MHI      -0.070400
     13 C7          -1.1910    -0.0310    -0.1280 c3         1 MHI      -0.158400
     14 C8          -0.1140    -0.7410    -0.9160 c          1 MHI       0.602100
     15 C9           2.0630    -1.8280    -0.7830 c3         1 MHI      -0.040300
     16 C10          1.6420    -3.3190    -0.6920 c          1 MHI       0.712000
     17 C11          3.3760    -1.5900    -0.0390 c3         1 MHI      -0.072400
     18 C12          3.9360    -0.1820    -0.2100 c3         1 MHI      -0.081400
     19 C13          5.2610     0.0140     0.5140 c3         1 MHI      -0.099400
     20 C15          7.2850     1.4140     0.9630 c          1 MHI       0.724000
     21 C14          5.8810     1.4080     0.3190 c3         1 MHI       0.023500
     22 H11C        -4.2380     4.4820     0.2750 hc         1 MHI       0.033033
     23 H12C        -3.3180     3.5670    -0.9230 hc         1 MHI       0.033033
     24 H13C        -4.6400     4.6190    -1.4390 hc         1 MHI       0.033033
     25 H2          -5.3750     2.2680    -1.4950 h1         1 MHI       0.055700
     26 H11N        -7.2990     2.5430    -0.1970 hn         1 MHI       0.400000
     27 H12N        -6.6090     3.6740     0.7300 hn         1 MHI       0.400000
     28 HA          -4.1080     0.6010    -0.9570 hn         1 MHI       0.297500
     29 H4          -3.1270     0.1740     1.7720 h1         1 MHI       0.059700
     30 H3           1.0640    -0.7410     0.7140 hn         1 MHI       0.292500
     31 H9           2.2260    -1.5890    -1.8380 h1         1 MHI       0.054700
     32 H61C        -2.0380    -1.8150     0.7250 hc         1 MHI       0.073200
     33 H62C        -2.7330    -1.3760    -0.8210 hc         1 MHI       0.073200
     34 H42N         5.1090     2.4820     1.8410 hn         1 MHI       0.377500
     35 H14          6.0100     1.5570    -0.7600 h1         1 MHI       0.038700
     36 H71C        -1.5150     0.8400    -0.7020 hc         1 MHI       0.032700
     37 H72C        -0.8120     0.3420     0.8270 hc         1 MHI       0.032700
     38 H111         3.2370    -1.8040     1.0270 hc         1 MHI       0.040200
     39 H112         4.1060    -2.3160    -0.4030 hc         1 MHI       0.040200
     40 H121         4.0720     0.0230    -1.2780 hc         1 MHI       0.022700
     41 H122         3.2000     0.5440     0.1470 hc         1 MHI       0.022700
     42 H131         5.1240    -0.1710     1.5860 hc         1 MHI       0.038200
     43 H132         5.9730    -0.7370     0.1580 hc         1 MHI       0.038200
     44 O2          -5.7210    -1.2410     0.7690 o          1 MHI      -0.733500
     45 O3          -4.2100    -2.1490     2.1370 o          1 MHI      -0.733500
     46 O5           0.6530    -3.5990     0.0070 o          1 MHI      -0.734000
     47 O6           2.3680    -4.1110    -1.3270 o          1 MHI      -0.734000
     48 O7           7.4030     1.9730     2.0720 o          1 MHI      -0.750500
     49 O8           8.1810     0.8160     0.3350 o          1 MHI      -0.750500
     50 H41N         4.1100     2.3960     0.5620 hn         1 MHI       0.377500
@<TRIPOS>BOND
     1     1     4 1   
     2     1    22 1   
     3     1    23 1   
     4     1    24 1   
     5     2     4 1   
     6     2    26 1   
     7     2    27 1   
     8     3     6 2   
     9     4     6 1   
    10     4    25 1   
    11     5     6 1   
    12     5     8 1   
    13     5    28 1   
    14     7    14 1   
    15     7    15 1   
    16     7    30 1   
    17     8    11 1   
    18     8    12 1   
    19     8    29 1   
    20     9    21 1   
    21     9    34 1   
    22     9    50 1   
    23    10    14 2   
    24    11    44 1   
    25    11    45 1   
    26    12    13 1   
    27    12    32 1   
    28    12    33 1   
    29    13    14 1   
    30    13    36 1   
    31    13    37 1   
    32    15    16 1   
    33    15    17 1   
    34    15    31 1   
    35    16    46 1   
    36    16    47 1   
    37    17    18 1   
    38    17    38 1   
    39    17    39 1   
    40    18    19 1   
    41    18    40 1   
    42    18    41 1   
    43    19    21 1   
    44    19    42 1   
    45    19    43 1   
    46    20    21 1   
    47    20    48 1   
    48    20    49 1   
    49    21    35 1   
@<TRIPOS>SUBSTRUCTURE
     1 MHI         1 TEMP              0 ****  ****    0 ROOT
