@<TRIPOS>MOLECULE
MHI
   50    49     1     0     0
SMALL
No Charge or Current Charge


@<TRIPOS>ATOM
      1 C1          -2.9620     3.9260    -0.1720 c3         1 MHI      -0.079100
      2 N1          -5.0930     3.9560     1.1140 n8         1 MHI      -1.009200
      3 O1          -3.4230     1.4910     1.8270 o          1 MHI      -0.651100
      4 C2          -4.2400     3.1380     0.1880 c3         1 MHI       0.076500
      5 N2          -4.1440     0.6740    -0.1840 ns         1 MHI      -0.431900
      6 C3          -3.8730     1.6970     0.7040 c          1 MHI       0.560100
      7 N3           0.7710    -1.8060     0.2860 ns         1 MHI      -0.452900
      8 C4          -3.8660    -0.7660     0.0440 c3         1 MHI      -0.047300
      9 N4           3.7500     2.8750    -0.0100 n8         1 MHI      -1.001200
     10 O4           0.3880    -0.8100    -1.7370 o          1 MHI      -0.652100
     11 C5          -5.0470    -1.6330    -0.4920 c          1 MHI       0.720000
     12 C6          -2.5150    -1.2050    -0.5800 c3         1 MHI      -0.070400
     13 C7          -1.2730    -0.4770    -0.0060 c3         1 MHI      -0.158400
     14 C8           0.0290    -1.0410    -0.5900 c          1 MHI       0.602100
     15 C9           2.0780    -2.4410    -0.0110 c3         1 MHI      -0.040300
     16 C10          2.1160    -3.8940     0.5600 c          1 MHI       0.712000
     17 C11          3.2720    -1.5990     0.5140 c3         1 MHI      -0.072400
     18 C12          3.4140    -0.2030    -0.1390 c3         1 MHI      -0.081400
     19 C13          4.6640     0.5670     0.3550 c3         1 MHI      -0.099400
     20 C15          6.3560     2.4870    -0.0310 c          1 MHI       0.724000
     21 C14          4.8910     1.9440    -0.3280 c3         1 MHI       0.023500
     22 H11C        -2.3360     4.0850     0.7150 hc         1 MHI       0.033033
     23 H12C        -2.3700     3.3740    -0.9120 hc         1 MHI       0.033033
     24 H13C        -3.2120     4.9040    -0.6000 hc         1 MHI       0.033033
     25 H2          -4.8120     3.0060    -0.7410 h1         1 MHI       0.055700
     26 H11N        -5.9620     3.4440     1.3170 hn         1 MHI       0.400000
     27 H12N        -4.6300     3.9960     2.0310 hn         1 MHI       0.400000
     28 HA          -4.5560     0.9380    -1.0730 hn         1 MHI       0.297500
     29 H4          -3.8160    -0.9410     1.1270 h1         1 MHI       0.059700
     30 H3           0.3760    -1.9470     1.2090 hn         1 MHI       0.292500
     31 H9           2.1790    -2.5310    -1.1000 h1         1 MHI       0.054700
     32 H61C        -2.3950    -2.2840    -0.4200 hc         1 MHI       0.073200
     33 H62C        -2.5520    -1.0550    -1.6670 hc         1 MHI       0.073200
     34 H42N         3.8020     3.1240     0.9850 hn         1 MHI       0.377500
     35 H14          4.8530     1.7660    -1.4120 h1         1 MHI       0.038700
     36 H71C        -1.3380     0.5870    -0.2640 hc         1 MHI       0.032700
     37 H72C        -1.2770    -0.5940     1.0850 hc         1 MHI       0.032700
     38 H111         3.1810    -1.4820     1.6010 hc         1 MHI       0.040200
     39 H112         4.1950    -2.1640     0.3350 hc         1 MHI       0.040200
     40 H121         3.4710    -0.3220    -1.2280 hc         1 MHI       0.022700
     41 H122         2.5140     0.3860     0.0750 hc         1 MHI       0.022700
     42 H131         4.6060     0.7030     1.4430 hc         1 MHI       0.038200
     43 H132         5.5480    -0.0560     0.1680 hc         1 MHI       0.038200
     44 O2          -5.4340    -1.4470    -1.6390 o          1 MHI      -0.733500
     45 O3          -5.5940    -2.4070     0.2810 o          1 MHI      -0.733500
     46 O5           1.8140    -4.0700     1.7340 o          1 MHI      -0.734000
     47 O6           2.3630    -4.8110    -0.2100 o          1 MHI      -0.734000
     48 O7           6.6310     2.8430     1.1090 o          1 MHI      -0.750500
     49 O8           7.1370     2.6000    -0.9680 o          1 MHI      -0.750500
     50 H41N         2.8700     2.3530    -0.0870 hn         1 MHI       0.377500
@<TRIPOS>BOND
     1     1     4 1   
     2     1    22 1   
     3     1    23 1   
     4     1    24 1   
     5     2     4 1   
     6     2    26 1   
     7     2    27 1   
     8     3     6 2   
     9     4     6 1   
    10     4    25 1   
    11     5     6 1   
    12     5     8 1   
    13     5    28 1   
    14     7    14 1   
    15     7    15 1   
    16     7    30 1   
    17     8    11 1   
    18     8    12 1   
    19     8    29 1   
    20     9    21 1   
    21     9    34 1   
    22     9    50 1   
    23    10    14 2   
    24    11    44 1   
    25    11    45 1   
    26    12    13 1   
    27    12    32 1   
    28    12    33 1   
    29    13    14 1   
    30    13    36 1   
    31    13    37 1   
    32    15    16 1   
    33    15    17 1   
    34    15    31 1   
    35    16    46 1   
    36    16    47 1   
    37    17    18 1   
    38    17    38 1   
    39    17    39 1   
    40    18    19 1   
    41    18    40 1   
    42    18    41 1   
    43    19    21 1   
    44    19    42 1   
    45    19    43 1   
    46    20    21 1   
    47    20    48 1   
    48    20    49 1   
    49    21    35 1   
@<TRIPOS>SUBSTRUCTURE
     1 MHI         1 TEMP              0 ****  ****    0 ROOT
