@<TRIPOS>MOLECULE
MHK
   23    24     1     0     0
SMALL
No Charge or Current Charge


@<TRIPOS>ATOM
      1 C1          16.6660     5.9290    13.9410 ca         1 MHK      -0.041000
      2 C11         15.7470     7.6170    15.4170 ca         1 MHK      -0.092000
      3 C2          15.9790     6.2600    15.1220 ca         1 MHK      -0.056000
      4 C3          15.5320     5.2410    16.0050 ca         1 MHK       0.046000
      5 C4          15.7800     3.8760    15.6750 ca         1 MHK      -0.246500
      6 C5          16.4850     3.5690    14.4880 ca         1 MHK       0.000000
      7 C6          16.9210     4.5890    13.6290 ca         1 MHK      -0.140000
      8 O9          13.7870     2.5920    16.9580 o          1 MHK      -0.544500
      9 S7          15.2300     2.5220    16.7440 sy         1 MHK       1.157600
     10 O8          16.1540     2.3660    17.8630 o          1 MHK      -0.544500
     11 N10         15.4290     1.1500    15.8870 n8         1 MHK      -1.068100
     12 C14         14.8610     5.6320    17.1920 ca         1 MHK      -0.110000
     13 C13         14.6340     6.9900    17.4780 ca         1 MHK      -0.082000
     14 C12         15.0740     7.9820    16.5910 ca         1 MHK      -0.110000
     15 H1          17.0080     6.7110    13.2670 ha         1 MHK       0.116000
     16 H2          16.0890     8.3930    14.7360 ha         1 MHK       0.113000
     17 H3          16.7050     2.5400    14.2130 ha         1 MHK       0.128000
     18 H4          17.4580     4.3370    12.7180 ha         1 MHK       0.118000
     19 H5          15.9140     0.5840    16.5790 hn         1 MHK       0.496500
     20 H6          14.4830     0.7780    15.9400 hn         1 MHK       0.496500
     21 H7          14.5060     4.9070    17.9160 ha         1 MHK       0.128000
     22 H8          14.1170     7.2720    18.3930 ha         1 MHK       0.119000
     23 H9          14.8970     9.0310    16.8160 ha         1 MHK       0.117000
@<TRIPOS>BOND
     1     1     3 ar  
     2     1     7 ar  
     3     1    15 1   
     4     2     3 ar  
     5     2    14 ar  
     6     2    16 1   
     7     3     4 ar  
     8     4     5 ar  
     9     4    12 ar  
    10     5     6 ar  
    11     5     9 1   
    12     6     7 ar  
    13     6    17 1   
    14     7    18 1   
    15     8     9 2   
    16     9    10 2   
    17     9    11 1   
    18    11    19 1   
    19    11    20 1   
    20    12    13 ar  
    21    12    21 1   
    22    13    14 ar  
    23    13    22 1   
    24    14    23 1   
@<TRIPOS>SUBSTRUCTURE
     1 MHK         1 TEMP              0 ****  ****    0 ROOT
