@<TRIPOS>MOLECULE
MHK
   23    24     1     0     0
SMALL
abcg2


@<TRIPOS>ATOM
      1 C1          16.6460     5.8580    13.9540 ca         1 MHK      -0.041000
      2 C11         15.7840     7.5970    15.4570 ca         1 MHK      -0.092000
      3 C2          15.9780     6.2310    15.1450 ca         1 MHK      -0.056000
      4 C3          15.4970     5.2300    16.0340 ca         1 MHK       0.046000
      5 C4          15.7220     3.8690    15.6670 ca         1 MHK      -0.246500
      6 C5          16.3720     3.5390    14.5090 ca         1 MHK       0.000000
      7 C6          16.8400     4.5450    13.6430 ca         1 MHK      -0.140000
      8 O9          13.6900     2.6750    16.7960 o          1 MHK      -0.544500
      9 S7          15.1430     2.5830    16.7520 sy         1 MHK       1.157600
     10 O8          15.9000     2.6860    17.9910 o          1 MHK      -0.544500
     11 N10         15.5640     1.1930    16.0050 n8         1 MHK      -1.068100
     12 C14         14.8350     5.6500    17.2140 ca         1 MHK      -0.110000
     13 C13         14.6640     6.9810    17.4860 ca         1 MHK      -0.082000
     14 C12         15.1410     7.9680    16.6040 ca         1 MHK      -0.110000
     15 H1          17.0020     6.6370    13.2920 ha         1 MHK       0.116000
     16 H2          16.1560     8.3450    14.7680 ha         1 MHK       0.113000
     17 H3          16.5310     2.5020    14.2520 ha         1 MHK       0.128000
     18 H4          17.3510     4.2620    12.7320 ha         1 MHK       0.118000
     19 H5          16.2430     0.6300    16.5000 hn         1 MHK       0.496500
     20 H6          14.7960     0.6650    15.6110 hn         1 MHK       0.496500
     21 H7          14.4490     4.9340    17.9240 ha         1 MHK       0.128000
     22 H8          14.1560     7.2760    18.3940 ha         1 MHK       0.119000
     23 H9          14.9970     9.0140    16.8370 ha         1 MHK       0.117000
@<TRIPOS>BOND
     1     1     3 ar  
     2     1     7 ar  
     3     1    15 1   
     4     2     3 ar  
     5     2    14 ar  
     6     2    16 1   
     7     3     4 ar  
     8     4     5 ar  
     9     4    12 ar  
    10     5     6 ar  
    11     5     9 1   
    12     6     7 ar  
    13     6    17 1   
    14     7    18 1   
    15     8     9 2   
    16     9    10 2   
    17     9    11 1   
    18    11    19 1   
    19    11    20 1   
    20    12    13 ar  
    21    12    21 1   
    22    13    14 ar  
    23    13    22 1   
    24    14    23 1   
@<TRIPOS>SUBSTRUCTURE
     1 MHK         1 TEMP              0 ****  ****    0 ROOT
