@<TRIPOS>MOLECULE
MHL
   25    24     1     0     0
SMALL
No Charge or Current Charge


@<TRIPOS>ATOM
      1 N            9.0570    38.6190    15.1550 n7         1 MHL      -0.858400
      2 CA           7.7700    39.2230    14.6320 c3         1 MHL       0.020500
      3 CB           7.5870    39.0150    13.0890 c3         1 MHL      -0.040400
      4 CG           8.3630    39.9810    12.1360 c3         1 MHL       0.183000
      5 CD1          9.8960    39.9510    12.3440 c3         1 MHL      -0.116600
      6 CD2          8.0310    39.6400    10.6630 c3         1 MHL      -0.116600
      7 C            6.4810    38.7970    15.4490 c          1 MHL       0.695000
      8 O            5.7900    37.8660    15.0510 o          1 MHL      -0.735000
      9 OXT          6.2210    39.4210    16.4700 o          1 MHL      -0.735000
     10 CN           9.1460    37.1450    15.1730 c3         1 MHL       0.155100
     11 OD3          7.9140    41.3190    12.3670 oh         1 MHL      -0.646000
     12 H            9.1760    38.9400    16.1250 hn         1 MHL       0.415000
     13 HA           7.8240    40.3100    14.7820 h1         1 MHL       0.058700
     14 HB2          7.8140    37.9770    12.8210 hc         1 MHL       0.048700
     15 HB3          6.5220    39.1430    12.8600 hc         1 MHL       0.048700
     16 HD11        10.4070    40.5640    11.5920 hc         1 MHL       0.030367
     17 HD12        10.1730    40.3420    13.3300 hc         1 MHL       0.030367
     18 HD13        10.2780    38.9260    12.2600 hc         1 MHL       0.030367
     19 HD21         8.5290    40.3340     9.9740 hc         1 MHL       0.030367
     20 HD22         8.3620    38.6240    10.4160 hc         1 MHL       0.030367
     21 HD23         6.9510    39.6980    10.4790 hc         1 MHL       0.030367
     22 HN1         10.1100    36.8300    15.5940 h1         1 MHL       0.009367
     23 HN2          8.3500    36.7110    15.7920 h1         1 MHL       0.009367
     24 HN3          9.0690    36.7260    14.1620 h1         1 MHL       0.009367
     25 HD3          8.4490    41.8990    11.7860 ho         1 MHL       0.412000
@<TRIPOS>BOND
     1     1     2 1   
     2     1    10 1   
     3     1    12 1   
     4     2     3 1   
     5     2     7 1   
     6     2    13 1   
     7     3     4 1   
     8     3    14 1   
     9     3    15 1   
    10     4     5 1   
    11     4     6 1   
    12     4    11 1   
    13     5    16 1   
    14     5    17 1   
    15     5    18 1   
    16     6    19 1   
    17     6    20 1   
    18     6    21 1   
    19     7     8 1   
    20     7     9 1   
    21    10    22 1   
    22    10    23 1   
    23    10    24 1   
    24    11    25 1   
@<TRIPOS>SUBSTRUCTURE
     1 MHL         1 TEMP              0 ****  ****    0 ROOT
