@<TRIPOS>MOLECULE
MHL
   25    24     1     0     0
SMALL
abcg2


@<TRIPOS>ATOM
      1 N            8.9220    38.9300    15.2230 n7         1 MHL      -0.858400
      2 CA           7.6390    39.2800    14.6240 c3         1 MHL       0.020500
      3 CB           7.5710    39.0010    13.1230 c3         1 MHL      -0.040400
      4 CG           8.4040    39.8860    12.1850 c3         1 MHL       0.183000
      5 CD1          9.9090    39.6670    12.3260 c3         1 MHL      -0.116600
      6 CD2          7.9900    39.5840    10.7430 c3         1 MHL      -0.116600
      7 C            6.4130    38.6920    15.3990 c          1 MHL       0.695000
      8 O            5.3080    38.6970    14.8170 o          1 MHL      -0.735000
      9 OXT          6.6240    38.3290    16.5740 o          1 MHL      -0.735000
     10 CN           9.2990    37.5370    15.0740 c3         1 MHL       0.155100
     11 OD3          8.0730    41.2340    12.5010 oh         1 MHL      -0.646000
     12 H            8.8250    39.1080    16.2150 hn         1 MHL       0.415000
     13 HA           7.5370    40.3670    14.7480 h1         1 MHL       0.058700
     14 HB2          7.8260    37.9570    12.9160 hc         1 MHL       0.048700
     15 HB3          6.5260    39.1080    12.8280 hc         1 MHL       0.048700
     16 HD11        10.4560    40.3010    11.6220 hc         1 MHL       0.030367
     17 HD12        10.2490    39.8900    13.3360 hc         1 MHL       0.030367
     18 HD13        10.1750    38.6330    12.1040 hc         1 MHL       0.030367
     19 HD21         8.5460    40.2060    10.0370 hc         1 MHL       0.030367
     20 HD22         8.1880    38.5420    10.4850 hc         1 MHL       0.030367
     21 HD23         6.9250    39.7700    10.5930 hc         1 MHL       0.030367
     22 HN1         10.1390    37.3240    15.7360 h1         1 MHL       0.009367
     23 HN2          8.5040    36.8170    15.3100 h1         1 MHL       0.009367
     24 HN3          9.6390    37.3320    14.0580 h1         1 MHL       0.009367
     25 HD3          8.5860    41.8090    11.9240 ho         1 MHL       0.412000
@<TRIPOS>BOND
     1     1     2 1   
     2     1    10 1   
     3     1    12 1   
     4     2     3 1   
     5     2     7 1   
     6     2    13 1   
     7     3     4 1   
     8     3    14 1   
     9     3    15 1   
    10     4     5 1   
    11     4     6 1   
    12     4    11 1   
    13     5    16 1   
    14     5    17 1   
    15     5    18 1   
    16     6    19 1   
    17     6    20 1   
    18     6    21 1   
    19     7     8 1   
    20     7     9 1   
    21    10    22 1   
    22    10    23 1   
    23    10    24 1   
    24    11    25 1   
@<TRIPOS>SUBSTRUCTURE
     1 MHL         1 TEMP              0 ****  ****    0 ROOT
