@<TRIPOS>MOLECULE
MHN
   27    26     1     0     0
SMALL
bcc


@<TRIPOS>ATOM
      1 O1           0.3130     0.1450    -4.6250 oh         1 MHN      -0.599800
      2 C8          -0.4980    -0.0860    -3.4910 c3         1 MHN       0.140400
      3 C7           0.3260     0.1140    -2.2350 c3         1 MHN      -0.081400
      4 C6          -0.4910    -0.1310    -0.9730 c3         1 MHN      -0.076400
      5 C5           0.2880     0.1300     0.3110 c3         1 MHN      -0.073400
      6 C4          -0.5190    -0.2120     1.5600 c3         1 MHN      -0.072400
      7 C2           0.0550     0.3330     2.8680 c3         1 MHN      -0.059700
      8 C1          -0.8560    -0.0240     4.0380 c3         1 MHN      -0.087100
      9 C3           1.4760    -0.1580     3.1290 c3         1 MHN      -0.087100
     10 HO1         -0.2310     0.0290    -5.4090 ho         1 MHN       0.403000
     11 H81         -0.9080    -1.1060    -3.4950 h1         1 MHN       0.014700
     12 H82         -1.3570     0.5970    -3.4710 h1         1 MHN       0.014700
     13 H71          0.7270     1.1330    -2.2220 hc         1 MHN       0.052200
     14 H72          1.1860    -0.5630    -2.2520 hc         1 MHN       0.052200
     15 H61         -0.8590    -1.1630    -0.9720 hc         1 MHN       0.036200
     16 H62         -1.3800     0.5080    -0.9850 hc         1 MHN       0.036200
     17 H51          0.5880     1.1840     0.3410 hc         1 MHN       0.040200
     18 H52          1.2150    -0.4500     0.2960 hc         1 MHN       0.040200
     19 H41         -0.6200    -1.3010     1.6360 hc         1 MHN       0.036700
     20 H42         -1.5370     0.1750     1.4420 hc         1 MHN       0.036700
     21 H2           0.0860     1.4260     2.7850 hc         1 MHN       0.043700
     22 H11         -0.4950     0.4110     4.9720 hc         1 MHN       0.031867
     23 H12         -1.8740     0.3350     3.8770 hc         1 MHN       0.031867
     24 H13         -0.9050    -1.1070     4.1780 hc         1 MHN       0.031867
     25 H31          1.5090    -1.2490     3.1890 hc         1 MHN       0.031867
     26 H32          2.1670     0.1520     2.3430 hc         1 MHN       0.031867
     27 H33          1.8590     0.2350     4.0720 hc         1 MHN       0.031867
@<TRIPOS>BOND
     1     1     2 1   
     2     1    10 1   
     3     2     3 1   
     4     2    11 1   
     5     2    12 1   
     6     3     4 1   
     7     3    13 1   
     8     3    14 1   
     9     4     5 1   
    10     4    15 1   
    11     4    16 1   
    12     5     6 1   
    13     5    17 1   
    14     5    18 1   
    15     6     7 1   
    16     6    19 1   
    17     6    20 1   
    18     7     8 1   
    19     7     9 1   
    20     7    21 1   
    21     8    22 1   
    22     8    23 1   
    23     8    24 1   
    24     9    25 1   
    25     9    26 1   
    26     9    27 1   
@<TRIPOS>SUBSTRUCTURE
     1 MHN         1 TEMP              0 ****  ****    0 ROOT
