@<TRIPOS>MOLECULE
MHN
   27    26     1     0     0
SMALL
No Charge or Current Charge


@<TRIPOS>ATOM
      1 O1           0.3220     0.2100    -4.7010 oh         1 MHN      -0.662000
      2 C8          -0.4640    -0.1640    -3.5650 c3         1 MHN       0.163600
      3 C7           0.2790     0.2180    -2.2690 c3         1 MHN      -0.081400
      4 C6          -0.5060    -0.1540    -0.9920 c3         1 MHN      -0.076400
      5 C5           0.2360     0.2280     0.3080 c3         1 MHN      -0.073400
      6 C4          -0.5530    -0.1500     1.5850 c3         1 MHN      -0.072400
      7 C2           0.1010     0.3100     2.9170 c3         1 MHN      -0.059700
      8 C1          -0.8390     0.0440     4.1140 c3         1 MHN      -0.087100
      9 C3           1.4900    -0.3280     3.1610 c3         1 MHN      -0.087100
     10 HO1         -0.1900    -0.0520    -5.4990 ho         1 MHN       0.442000
     11 H81         -0.6500    -1.2460    -3.5710 h1         1 MHN       0.014700
     12 H82         -1.4350     0.3470    -3.5900 h1         1 MHN       0.014700
     13 H71          0.4740     1.2980    -2.2720 hc         1 MHN       0.052200
     14 H72          1.2540    -0.2850    -2.2530 hc         1 MHN       0.052200
     15 H61         -0.7010    -1.2340    -0.9910 hc         1 MHN       0.036200
     16 H62         -1.4820     0.3480    -1.0110 hc         1 MHN       0.036200
     17 H51          0.4280     1.3080     0.3090 hc         1 MHN       0.040200
     18 H52          1.2110    -0.2730     0.3150 hc         1 MHN       0.040200
     19 H41         -0.6970    -1.2380     1.6090 hc         1 MHN       0.036700
     20 H42         -1.5540     0.2950     1.5160 hc         1 MHN       0.036700
     21 H2           0.2450     1.3970     2.8580 hc         1 MHN       0.043700
     22 H11         -0.4000     0.4210     5.0460 hc         1 MHN       0.031867
     23 H12         -1.8040     0.5460     3.9710 hc         1 MHN       0.031867
     24 H13         -1.0260    -1.0310     4.2330 hc         1 MHN       0.031867
     25 H31          1.4230    -1.4230     3.1560 hc         1 MHN       0.031867
     26 H32          2.2090    -0.0220     2.3920 hc         1 MHN       0.031867
     27 H33          1.8940    -0.0150     4.1310 hc         1 MHN       0.031867
@<TRIPOS>BOND
     1     1     2 1   
     2     1    10 1   
     3     2     3 1   
     4     2    11 1   
     5     2    12 1   
     6     3     4 1   
     7     3    13 1   
     8     3    14 1   
     9     4     5 1   
    10     4    15 1   
    11     4    16 1   
    12     5     6 1   
    13     5    17 1   
    14     5    18 1   
    15     6     7 1   
    16     6    19 1   
    17     6    20 1   
    18     7     8 1   
    19     7     9 1   
    20     7    21 1   
    21     8    22 1   
    22     8    23 1   
    23     8    24 1   
    24     9    25 1   
    25     9    26 1   
    26     9    27 1   
@<TRIPOS>SUBSTRUCTURE
     1 MHN         1 TEMP              0 ****  ****    0 ROOT
