@<TRIPOS>MOLECULE
MHO
   20    19     1     0     0
SMALL
No Charge or Current Charge


@<TRIPOS>ATOM
      1 N           16.8120     5.0550    -8.8020 n8         1 MHO      -0.897800
      2 CA          15.8680     4.1830    -8.0050 c3         1 MHO       0.020500
      3 CB          15.9370     2.7160    -8.5230 c3         1 MHO      -0.011400
      4 CG          17.3260     2.0460    -8.3900 c3         1 MHO       0.013900
      5 SD          17.3250     0.3290    -9.0890 s4         1 MHO       0.071600
      6 CE          16.4660    -0.4990    -7.6760 c3         1 MHO      -0.050800
      7 C           15.9300     4.3060    -6.4090 c          1 MHO       0.932600
      8 O           16.0920     3.3050    -5.7170 o          1 MHO      -0.833800
      9 OXT         15.8190     5.4250    -5.9130 o          1 MHO      -0.833800
     10 OD1         18.7560    -0.1580    -9.0760 o          1 MHO      -0.515200
     11 H           16.6740     6.0330    -8.5240 hn         1 MHO       0.329800
     12 H2          16.5470     5.0290    -9.7920 hn         1 MHO       0.329800
     13 HA          14.8650     4.5440    -8.2680 h1         1 MHO      -0.002300
     14 HB2         15.1830     2.1170    -7.9990 hc         1 MHO       0.017200
     15 HB3         15.6480     2.7050    -9.5820 hc         1 MHO       0.017200
     16 HG2         18.0760     2.6230    -8.9450 h1         1 MHO       0.100700
     17 HG3         17.6380     1.9900    -7.3410 h1         1 MHO       0.100700
     18 HE1         16.5470    -1.5850    -7.8040 h1         1 MHO       0.070367
     19 HE2         16.9420    -0.1990    -6.7350 h1         1 MHO       0.070367
     20 HE3         15.4090    -0.2060    -7.6750 h1         1 MHO       0.070367
@<TRIPOS>BOND
     1     1     2 1   
     2     1    11 1   
     3     1    12 1   
     4     2     3 1   
     5     2     7 1   
     6     2    13 1   
     7     3     4 1   
     8     3    14 1   
     9     3    15 1   
    10     4     5 1   
    11     4    16 1   
    12     4    17 1   
    13     5     6 1   
    14     5    10 2   
    15     6    18 1   
    16     6    19 1   
    17     6    20 1   
    18     7     8 1   
    19     7     9 1   
@<TRIPOS>SUBSTRUCTURE
     1 MHO         1 TEMP              0 ****  ****    0 ROOT
