@<TRIPOS>MOLECULE
MHO
   20    19     1     0     0
SMALL
bcc


@<TRIPOS>ATOM
      1 N           16.6550     4.9240    -8.9120 n8         1 MHO      -0.897800
      2 CA          15.7880     4.1350    -8.0510 c3         1 MHO       0.020500
      3 CB          15.8760     2.6540    -8.4230 c3         1 MHO      -0.011400
      4 CG          17.2700     2.0870    -8.2110 c3         1 MHO       0.013900
      5 SD          17.5070     0.4660    -8.9870 s4         1 MHO       0.071600
      6 CE          16.4820    -0.5100    -7.8670 c3         1 MHO      -0.050800
      7 C           16.1000     4.3940    -6.5520 c          1 MHO       0.932600
      8 O           15.6600     3.5530    -5.7440 o          1 MHO      -0.833800
      9 OXT         16.7220     5.4390    -6.2810 o          1 MHO      -0.833800
     10 OD1         18.9380     0.0610    -8.7090 o          1 MHO      -0.515200
     11 H           16.8270     5.8110    -8.4580 hn         1 MHO       0.329800
     12 H2          16.1910     5.1190    -9.7890 hn         1 MHO       0.329800
     13 HA          14.7280     4.4150    -8.1740 h1         1 MHO      -0.002300
     14 HB2         15.1440     2.1000    -7.8360 hc         1 MHO       0.017200
     15 HB3         15.5870     2.5370    -9.4730 hc         1 MHO       0.017200
     16 HG2         18.0140     2.7290    -8.6870 h1         1 MHO       0.100700
     17 HG3         17.5200     1.9880    -7.1520 h1         1 MHO       0.100700
     18 HE1         16.5940    -1.5550    -8.1490 h1         1 MHO       0.070367
     19 HE2         16.8200    -0.3620    -6.8420 h1         1 MHO       0.070367
     20 HE3         15.4370    -0.2230    -7.9660 h1         1 MHO       0.070367
@<TRIPOS>BOND
     1     1     2 1   
     2     1    11 1   
     3     1    12 1   
     4     2     3 1   
     5     2     7 1   
     6     2    13 1   
     7     3     4 1   
     8     3    14 1   
     9     3    15 1   
    10     4     5 1   
    11     4    16 1   
    12     4    17 1   
    13     5     6 1   
    14     5    10 2   
    15     6    18 1   
    16     6    19 1   
    17     6    20 1   
    18     7     8 1   
    19     7     9 1   
@<TRIPOS>SUBSTRUCTURE
     1 MHO         1 TEMP              0 ****  ****    0 ROOT
