@<TRIPOS>MOLECULE
MHQ
   72    75     1     0     0
SMALL
abcg2


@<TRIPOS>ATOM
      1 C18          4.4260   -33.9090    -6.7140 c6         1 MHQ       0.171300
      2 C17          3.5670   -32.8300    -7.3550 c6         1 MHQ      -0.034200
      3 C16          2.1490   -33.2990    -7.5510 c2         1 MHQ      -0.112400
      4 C15          1.5700   -33.2110    -8.7480 c2         1 MHQ      -0.214200
      5 C14          0.1620   -33.6030    -9.0490 c6         1 MHQ      -0.038200
      6 C1          -9.0080   -39.7270   -10.0820 c3         1 MHQ      -0.055400
      7 C2          -8.0450   -39.3440    -8.9950 c2         1 MHQ      -0.114400
      8 C3          -8.2610   -40.0640    -7.6970 c3         1 MHQ      -0.055400
      9 C4          -7.0930   -38.4310    -9.2080 c2         1 MHQ      -0.222200
     10 C13         -0.6710   -33.8270    -7.7930 c6         1 MHQ      -0.042700
     11 C6          -6.3850   -36.5060    -7.7660 c3         1 MHQ      -0.070400
     12 C12         -1.9430   -34.5900    -8.1220 c5         1 MHQ      -0.064700
     13 C11         -2.9000   -34.0010    -9.1530 c5         1 MHQ      -0.072400
     14 C7          -5.3170   -35.8600    -6.8700 c3         1 MHQ      -0.047700
     15 C8          -5.1370   -36.6740    -5.5900 c3         1 MHQ      -0.086100
     16 C9          -4.0090   -35.6260    -7.6360 c5         1 MHQ      -0.053700
     17 C10         -4.2140   -34.7730    -8.9140 c5         1 MHQ      -0.075400
     18 C19          3.7940   -34.3470    -5.4030 c6         1 MHQ      -0.110400
     19 C20          2.3810   -34.8670    -5.6370 c6         1 MHQ      -0.063400
     20 C21          1.4360   -33.8630    -6.3320 c6         1 MHQ       0.004200
     21 C22          1.1100   -32.7020    -5.3760 c3         1 MHQ      -0.079100
     22 C23          0.1520   -34.6170    -6.7630 c6         1 MHQ      -0.046700
     23 C24         -0.6980   -35.0870    -5.5750 c6         1 MHQ      -0.071400
     24 C25         -1.9960   -35.7910    -5.9820 c6         1 MHQ      -0.062400
     25 C26         -2.8360   -34.9200    -6.9150 c5         1 MHQ      -0.038000
     26 C27         -3.3280   -33.6610    -6.1950 c3         1 MHQ      -0.077100
     27 O1           5.7290   -33.3860    -6.5440 oh         1 MHQ      -0.661000
     28 H1           4.4480   -34.7770    -7.3910 h1         1 MHQ       0.030700
     29 H2           3.9930   -32.5280    -8.3150 hc         1 MHQ       0.057700
     30 H3           3.5900   -31.9460    -6.7050 hc         1 MHQ       0.057700
     31 H4           2.1500   -32.8200    -9.5800 ha         1 MHQ       0.170000
     32 H5          -0.3030   -32.8380    -9.6780 hc         1 MHQ       0.046700
     33 H6           0.1590   -34.5170    -9.6600 hc         1 MHQ       0.046700
     34 H7         -10.0390   -39.5130    -9.7870 hc         1 MHQ       0.038033
     35 H8          -8.8060   -39.1990   -11.0140 hc         1 MHQ       0.038033
     36 H9          -8.9630   -40.8000   -10.2860 hc         1 MHQ       0.038033
     37 H10         -7.5790   -39.7530    -6.9080 hc         1 MHQ       0.038033
     38 H11         -9.2800   -39.9000    -7.3350 hc         1 MHQ       0.038033
     39 H12         -8.1510   -41.1430    -7.8280 hc         1 MHQ       0.038033
     40 H13         -7.0580   -37.9690   -10.1930 ha         1 MHQ       0.163000
     41 H14         -0.9310   -32.8450    -7.3780 hc         1 MHQ       0.054700
     42 H15         -5.9850   -38.5940    -7.3790 hc         1 MHQ       0.043700
     43 H16         -5.0890   -37.9420    -8.7290 hc         1 MHQ       0.043700
     44 H18         -7.3310   -36.5320    -7.2150 hc         1 MHQ       0.040200
     45 H19         -1.6160   -35.5640    -8.5210 hc         1 MHQ       0.042700
     46 H20         -2.5320   -34.1160   -10.1740 hc         1 MHQ       0.041200
     47 H21         -3.0370   -32.9280    -8.9900 hc         1 MHQ       0.041200
     48 H22         -5.7200   -34.8790    -6.5870 hc         1 MHQ       0.045700
     49 H23         -4.6190   -36.1100    -4.8150 hc         1 MHQ       0.032033
     50 H24         -6.1070   -36.9670    -5.1800 hc         1 MHQ       0.032033
     51 H25         -4.5650   -37.5870    -5.7660 hc         1 MHQ       0.032033
     52 H26         -3.6220   -36.6080    -7.9400 hc         1 MHQ       0.045700
     53 H27         -5.0520   -34.0840    -8.7840 hc         1 MHQ       0.040700
     54 H28         -4.4700   -35.4050    -9.7670 hc         1 MHQ       0.040700
     55 H29          4.3970   -35.1340    -4.9390 hc         1 MHQ       0.045200
     56 H30          3.7900   -33.5020    -4.7080 hc         1 MHQ       0.045200
     57 H31          1.9500   -35.1730    -4.6810 hc         1 MHQ       0.041200
     58 H32          2.4360   -35.7720    -6.2530 hc         1 MHQ       0.041200
     59 H33          0.7540   -33.0630    -4.4100 hc         1 MHQ       0.034700
     60 H34          1.9800   -32.0760    -5.1760 hc         1 MHQ       0.034700
     61 H35          0.3400   -32.0540    -5.7970 hc         1 MHQ       0.034700
     62 H36          0.4900   -35.5250    -7.2870 hc         1 MHQ       0.044700
     63 H37         -0.1140   -35.7710    -4.9550 hc         1 MHQ       0.039200
     64 H38         -0.9460   -34.2420    -4.9280 hc         1 MHQ       0.039200
     65 H39         -2.5400   -36.0690    -5.0780 hc         1 MHQ       0.039700
     66 H40         -1.7590   -36.7270    -6.5010 hc         1 MHQ       0.039700
     67 H41         -3.9710   -33.9170    -5.3520 hc         1 MHQ       0.032033
     68 H42         -2.5070   -33.0660    -5.7940 hc         1 MHQ       0.032033
     69 H43         -3.9030   -33.0070    -6.8520 hc         1 MHQ       0.032033
     70 H44          6.2770   -34.0750    -6.1560 ho         1 MHQ       0.441000
     71 H17         -6.5640   -35.8710    -8.6390 hc         1 MHQ       0.040200
     72 C5          -6.0680   -37.9280    -8.2390 c3         1 MHQ      -0.039200
@<TRIPOS>BOND
     1     1     2 1   
     2     1    18 1   
     3     1    27 1   
     4     1    28 1   
     5     2     3 1   
     6     2    29 1   
     7     2    30 1   
     8     3     4 2   
     9     3    20 1   
    10     4     5 1   
    11     4    31 1   
    12     5    10 1   
    13     5    32 1   
    14     5    33 1   
    15     6     7 1   
    16     6    34 1   
    17     6    35 1   
    18     6    36 1   
    19     7     8 1   
    20     7     9 2   
    21     8    37 1   
    22     8    38 1   
    23     8    39 1   
    24     9    40 1   
    25     9    72 1   
    26    10    12 1   
    27    10    22 1   
    28    10    41 1   
    29    11    14 1   
    30    11    44 1   
    31    11    71 1   
    32    11    72 1   
    33    12    13 1   
    34    12    25 1   
    35    12    45 1   
    36    13    17 1   
    37    13    46 1   
    38    13    47 1   
    39    14    15 1   
    40    14    16 1   
    41    14    48 1   
    42    15    49 1   
    43    15    50 1   
    44    15    51 1   
    45    16    17 1   
    46    16    25 1   
    47    16    52 1   
    48    17    53 1   
    49    17    54 1   
    50    18    19 1   
    51    18    55 1   
    52    18    56 1   
    53    19    20 1   
    54    19    57 1   
    55    19    58 1   
    56    20    21 1   
    57    20    22 1   
    58    21    59 1   
    59    21    60 1   
    60    21    61 1   
    61    22    23 1   
    62    22    62 1   
    63    23    24 1   
    64    23    63 1   
    65    23    64 1   
    66    24    25 1   
    67    24    65 1   
    68    24    66 1   
    69    25    26 1   
    70    26    67 1   
    71    26    68 1   
    72    26    69 1   
    73    27    70 1   
    74    42    72 1   
    75    43    72 1   
@<TRIPOS>SUBSTRUCTURE
     1 MHQ         1 TEMP              0 ****  ****    0 ROOT
