@<TRIPOS>MOLECULE
MHQ
   72    75     1     0     0
SMALL
No Charge or Current Charge


@<TRIPOS>ATOM
      1 C18          4.5510   -33.9320    -6.6670 c6         1 MHQ       0.171300
      2 C17          3.7010   -32.8650    -7.3900 c6         1 MHQ      -0.034200
      3 C16          2.2410   -33.2940    -7.5640 c2         1 MHQ      -0.112400
      4 C15          1.6410   -33.1670    -8.7600 c2         1 MHQ      -0.214200
      5 C14          0.1980   -33.5410    -9.0460 c6         1 MHQ      -0.038200
      6 C1          -9.2650   -39.8940    -9.9100 c3         1 MHQ      -0.055400
      7 C2          -8.1770   -39.3670    -8.9910 c2         1 MHQ      -0.114400
      8 C3          -8.3380   -39.8650    -7.5620 c3         1 MHQ      -0.055400
      9 C4          -7.1990   -38.5510    -9.4260 c2         1 MHQ      -0.222200
     10 C13         -0.6450   -33.7920    -7.7670 c6         1 MHQ      -0.042700
     11 C6          -6.4320   -36.6530    -7.9210 c3         1 MHQ      -0.070400
     12 C12         -1.9540   -34.5610    -8.1230 c5         1 MHQ      -0.064700
     13 C11         -2.9310   -33.8660    -9.1080 c5         1 MHQ      -0.072400
     14 C7          -5.3490   -36.0430    -6.9770 c3         1 MHQ      -0.047700
     15 C8          -5.1290   -36.9570    -5.7460 c3         1 MHQ      -0.086100
     16 C9          -4.0280   -35.6390    -7.7230 c5         1 MHQ      -0.053700
     17 C10         -4.2640   -34.6600    -8.9300 c5         1 MHQ      -0.075400
     18 C19          3.9010   -34.3030    -5.3180 c6         1 MHQ      -0.110400
     19 C20          2.4580   -34.8240    -5.5320 c6         1 MHQ      -0.063400
     20 C21          1.5200   -33.8270    -6.3020 c6         1 MHQ       0.004200
     21 C22          1.2160   -32.5770    -5.4030 c3         1 MHQ      -0.079100
     22 C23          0.1920   -34.5930    -6.7130 c6         1 MHQ      -0.046700
     23 C24         -0.6880   -35.0330    -5.4880 c6         1 MHQ      -0.071400
     24 C25         -1.9970   -35.7590    -5.9040 c6         1 MHQ      -0.062400
     25 C26         -2.8710   -34.8990    -6.9020 c5         1 MHQ      -0.038000
     26 C27         -3.4200   -33.6530    -6.1240 c3         1 MHQ      -0.077100
     27 O1           5.8790   -33.4450    -6.4520 oh         1 MHQ      -0.661000
     28 H1           4.5830   -34.8330    -7.2980 h1         1 MHQ       0.030700
     29 H2           4.1470   -32.6480    -8.3700 hc         1 MHQ       0.057700
     30 H3           3.7410   -31.9210    -6.8290 hc         1 MHQ       0.057700
     31 H4           2.1920   -32.7720    -9.6150 ha         1 MHQ       0.170000
     32 H5          -0.2700   -32.7440    -9.6410 hc         1 MHQ       0.046700
     33 H6           0.2000   -34.4370    -9.6820 hc         1 MHQ       0.046700
     34 H7         -10.2580   -39.5770    -9.5690 hc         1 MHQ       0.038033
     35 H8          -9.1400   -39.5320   -10.9370 hc         1 MHQ       0.038033
     36 H9          -9.2560   -40.9900    -9.9440 hc         1 MHQ       0.038033
     37 H10         -7.5950   -39.4450    -6.8760 hc         1 MHQ       0.038033
     38 H11         -9.3250   -39.5970    -7.1640 hc         1 MHQ       0.038033
     39 H12         -8.2470   -40.9570    -7.5140 hc         1 MHQ       0.038033
     40 H13         -7.1780   -38.2480   -10.4740 ha         1 MHQ       0.163000
     41 H14         -0.9200   -32.8170    -7.3460 hc         1 MHQ       0.054700
     42 H15         -5.7070   -38.7080    -7.8730 hc         1 MHQ       0.043700
     43 H16         -5.1910   -37.8130    -9.2830 hc         1 MHQ       0.043700
     44 H18         -7.3470   -36.8190    -7.3390 hc         1 MHQ       0.040200
     45 H19         -1.5880   -35.4900    -8.5840 hc         1 MHQ       0.042700
     46 H20         -2.5680   -33.9070   -10.1410 hc         1 MHQ       0.041200
     47 H21         -3.0650   -32.8060    -8.8640 hc         1 MHQ       0.041200
     48 H22         -5.7970   -35.1210    -6.5890 hc         1 MHQ       0.045700
     49 H23         -4.7210   -36.3850    -4.9060 hc         1 MHQ       0.032033
     50 H24         -6.0770   -37.3880    -5.4020 hc         1 MHQ       0.032033
     51 H25         -4.4440   -37.7800    -5.9790 hc         1 MHQ       0.032033
     52 H26         -3.6160   -36.5800    -8.1090 hc         1 MHQ       0.045700
     53 H27         -5.0950   -33.9700    -8.7390 hc         1 MHQ       0.040700
     54 H28         -4.5250   -35.2130    -9.8400 hc         1 MHQ       0.040700
     55 H29          4.4950   -35.0800    -4.8190 hc         1 MHQ       0.045200
     56 H30          3.8980   -33.4360    -4.6430 hc         1 MHQ       0.045200
     57 H31          2.0310   -35.0710    -4.5510 hc         1 MHQ       0.041200
     58 H32          2.5170   -35.7730    -6.0830 hc         1 MHQ       0.041200
     59 H33          0.7960   -32.8610    -4.4320 hc         1 MHQ       0.034700
     60 H34          2.1180   -31.9970    -5.1830 hc         1 MHQ       0.034700
     61 H35          0.5130   -31.8870    -5.8820 hc         1 MHQ       0.034700
     62 H36          0.5000   -35.5210    -7.2170 hc         1 MHQ       0.044700
     63 H37         -0.1190   -35.7100    -4.8400 hc         1 MHQ       0.039200
     64 H38         -0.9470   -34.1710    -4.8630 hc         1 MHQ       0.039200
     65 H39         -2.5610   -36.0060    -4.9970 hc         1 MHQ       0.039700
     66 H40         -1.7420   -36.7190    -6.3740 hc         1 MHQ       0.039700
     67 H41         -3.9670   -33.9630    -5.2260 hc         1 MHQ       0.032033
     68 H42         -2.6260   -32.9740    -5.7990 hc         1 MHQ       0.032033
     69 H43         -4.1170   -33.0570    -6.7230 hc         1 MHQ       0.032033
     70 H44          6.3780   -34.1730    -6.0200 ho         1 MHQ       0.441000
     71 H17         -6.7050   -35.9200    -8.6880 hc         1 MHQ       0.040200
     72 C5          -6.0470   -37.9810    -8.6180 c3         1 MHQ      -0.039200
@<TRIPOS>BOND
     1     1     2 1   
     2     1    18 1   
     3     1    27 1   
     4     1    28 1   
     5     2     3 1   
     6     2    29 1   
     7     2    30 1   
     8     3     4 2   
     9     3    20 1   
    10     4     5 1   
    11     4    31 1   
    12     5    10 1   
    13     5    32 1   
    14     5    33 1   
    15     6     7 1   
    16     6    34 1   
    17     6    35 1   
    18     6    36 1   
    19     7     8 1   
    20     7     9 2   
    21     8    37 1   
    22     8    38 1   
    23     8    39 1   
    24     9    40 1   
    25     9    72 1   
    26    10    12 1   
    27    10    22 1   
    28    10    41 1   
    29    11    14 1   
    30    11    44 1   
    31    11    71 1   
    32    11    72 1   
    33    12    13 1   
    34    12    25 1   
    35    12    45 1   
    36    13    17 1   
    37    13    46 1   
    38    13    47 1   
    39    14    15 1   
    40    14    16 1   
    41    14    48 1   
    42    15    49 1   
    43    15    50 1   
    44    15    51 1   
    45    16    17 1   
    46    16    25 1   
    47    16    52 1   
    48    17    53 1   
    49    17    54 1   
    50    18    19 1   
    51    18    55 1   
    52    18    56 1   
    53    19    20 1   
    54    19    57 1   
    55    19    58 1   
    56    20    21 1   
    57    20    22 1   
    58    21    59 1   
    59    21    60 1   
    60    21    61 1   
    61    22    23 1   
    62    22    62 1   
    63    23    24 1   
    64    23    63 1   
    65    23    64 1   
    66    24    25 1   
    67    24    65 1   
    68    24    66 1   
    69    25    26 1   
    70    26    67 1   
    71    26    68 1   
    72    26    69 1   
    73    27    70 1   
    74    42    72 1   
    75    43    72 1   
@<TRIPOS>SUBSTRUCTURE
     1 MHQ         1 TEMP              0 ****  ****    0 ROOT
