@<TRIPOS>MOLECULE
MHR
   35    37     1     0     0
SMALL
No Charge or Current Charge


@<TRIPOS>ATOM
      1 C2          -2.4230    -1.9700    -0.2750 ca         1 MHR      -0.308000
      2 C3          -3.7070    -1.4310    -0.4580 ca         1 MHR       0.395900
      3 C1          -1.3370    -1.0960    -0.0810 ca         1 MHR       0.246100
      4 C11          0.6760     1.5930     0.0270 ca         1 MHR       0.262800
      5 C12          2.7190     0.9920    -0.8140 ca         1 MHR       0.371900
      6 N7           3.4220     1.8980    -0.1180 nb         1 MHR      -0.249000
      7 C13          2.7100     2.7010     0.6950 ca         1 MHR       0.145900
      8 C14          1.3150     2.5840     0.7970 ca         1 MHR      -0.284000
      9 N5           1.3930     0.7940    -0.7910 nb         1 MHR      -0.227000
     10 C9          -0.7810     1.4370     0.0800 cc         1 MHR      -0.192000
     11 C8          -1.6050     2.5500     0.0200 cd         1 MHR      -0.142100
     12 N2          -2.9350     2.1040    -0.1700 na         1 MHR      -0.316400
     13 C4          -2.9150     0.7240    -0.2570 ca         1 MHR       0.385500
     14 N1          -3.9610    -0.1010    -0.4400 nb         1 MHR      -0.709000
     15 C10         -1.6220     0.2780    -0.1060 ca         1 MHR      -0.136800
     16 O1          -0.0560    -1.5430     0.1650 os         1 MHR      -0.316100
     17 C15          0.2670    -2.9400     0.2270 c3         1 MHR       0.161600
     18 C16          1.7740    -3.0530     0.5300 c3         1 MHR      -0.078400
     19 C17          2.2610    -4.5110     0.6300 c3         1 MHR      -0.091100
     20 H2          -2.3030    -3.0480    -0.2780 ha         1 MHR       0.124000
     21 H3          -4.5660    -2.0850    -0.6080 h4         1 MHR       0.016100
     22 HN6          4.4480     0.1680    -1.5460 hn         1 MHR       0.489000
     23 HN6A         2.9880    -0.6270    -2.0460 hn         1 MHR       0.489000
     24 H13          3.2640     3.4430     1.2690 h4         1 MHR       0.017100
     25 H14          0.7510     3.2350     1.4590 ha         1 MHR       0.130000
     26 H8          -1.3450     3.6070     0.0460 h4         1 MHR       0.220000
     27 HN2         -3.7640     2.6780    -0.2640 hn         1 MHR       0.364000
     28 H15         -0.3040    -3.4350     1.0220 h1         1 MHR       0.037200
     29 H15A         0.0460    -3.4330    -0.7280 h1         1 MHR       0.037200
     30 H16          2.3390    -2.5390    -0.2570 hc         1 MHR       0.053200
     31 H16A         1.9920    -2.5360     1.4730 hc         1 MHR       0.053200
     32 H17          1.7350    -5.0420     1.4330 hc         1 MHR       0.036700
     33 H17A         2.0850    -5.0450    -0.3120 hc         1 MHR       0.036700
     34 H17B         3.3360    -4.5420     0.8450 hc         1 MHR       0.036700
     35 N6           3.4360     0.1930    -1.6440 nv         1 MHR      -1.059900
@<TRIPOS>BOND
     1     1     2 ar  
     2     1     3 ar  
     3     1    20 1   
     4     2    14 ar  
     5     2    21 1   
     6     3    15 ar  
     7     3    16 1   
     8     4     8 ar  
     9     4     9 ar  
    10     4    10 1   
    11     5     6 ar  
    12     5     9 ar  
    13     5    35 1   
    14     6     7 ar  
    15     7     8 ar  
    16     7    24 1   
    17     8    25 1   
    18    10    11 2   
    19    10    15 1   
    20    11    12 1   
    21    11    26 1   
    22    12    13 1   
    23    12    27 1   
    24    13    14 ar  
    25    13    15 ar  
    26    16    17 1   
    27    17    18 1   
    28    17    28 1   
    29    17    29 1   
    30    18    19 1   
    31    18    30 1   
    32    18    31 1   
    33    19    32 1   
    34    19    33 1   
    35    19    34 1   
    36    22    35 1   
    37    23    35 1   
@<TRIPOS>SUBSTRUCTURE
     1 MHR         1 TEMP              0 ****  ****    0 ROOT
