@<TRIPOS>MOLECULE
MHR
   35    37     1     0     0
SMALL
abcg2


@<TRIPOS>ATOM
      1 C2          -2.3650    -1.9650    -0.1840 ca         1 MHR      -0.308000
      2 C3          -3.6490    -1.4270    -0.3110 ca         1 MHR       0.395900
      3 C1          -1.2650    -1.1170    -0.0790 ca         1 MHR       0.246100
      4 C11          0.7060     1.6570    -0.0190 ca         1 MHR       0.262800
      5 C12          2.7790     1.0140    -0.6960 ca         1 MHR       0.371900
      6 N7           3.4210     1.9630    -0.0080 nb         1 MHR      -0.249000
      7 C13          2.6530     2.7870     0.6900 ca         1 MHR       0.145900
      8 C14          1.2760     2.6860     0.7350 ca         1 MHR      -0.284000
      9 N5           1.4580     0.8360    -0.7400 nb         1 MHR      -0.227000
     10 C9          -0.7420     1.4710    -0.0600 cc         1 MHR      -0.192000
     11 C8          -1.6460     2.5030    -0.0900 cd         1 MHR      -0.142100
     12 N2          -2.9070     2.0130    -0.2050 na         1 MHR      -0.316400
     13 C4          -2.8660     0.6510    -0.2410 ca         1 MHR       0.385500
     14 N1          -3.9310    -0.1360    -0.3280 nb         1 MHR      -0.709000
     15 C10         -1.5150     0.2640    -0.1500 ca         1 MHR      -0.136800
     16 O1          -0.0130    -1.5180     0.1040 os         1 MHR      -0.316100
     17 C15          0.2710    -2.9090     0.1930 c3         1 MHR       0.161600
     18 C16          1.7620    -3.0750     0.3940 c3         1 MHR      -0.078400
     19 C17          2.1350    -4.5460     0.5200 c3         1 MHR      -0.091100
     20 H2          -2.2620    -3.0400    -0.1530 ha         1 MHR       0.124000
     21 H3          -4.4900    -2.1070    -0.3890 h4         1 MHR       0.016100
     22 HN6          4.5210     0.1410    -1.2760 hn         1 MHR       0.489000
     23 HN6A         3.1020    -0.6600    -1.7950 hn         1 MHR       0.489000
     24 H13          3.1630     3.5610     1.2530 h4         1 MHR       0.017100
     25 H14          0.6800     3.3530     1.3410 ha         1 MHR       0.130000
     26 H8          -1.4680     3.5660    -0.0730 h4         1 MHR       0.220000
     27 HN2         -3.7440     2.5690    -0.2740 hn         1 MHR       0.364000
     28 H15         -0.2800    -3.3510     1.0310 h1         1 MHR       0.037200
     29 H15A        -0.0500    -3.4180    -0.7220 h1         1 MHR       0.037200
     30 H16          2.2960    -2.6270    -0.4470 hc         1 MHR       0.053200
     31 H16A         2.0710    -2.5350     1.2920 hc         1 MHR       0.053200
     32 H17          1.6360    -5.0110     1.3710 hc         1 MHR       0.036700
     33 H17A         1.8560    -5.1070    -0.3740 hc         1 MHR       0.036700
     34 H17B         3.2080    -4.6640     0.6620 hc         1 MHR       0.036700
     35 N6           3.5320     0.1790    -1.4490 nv         1 MHR      -1.059900
@<TRIPOS>BOND
     1     1     2 ar  
     2     1     3 ar  
     3     1    20 1   
     4     2    14 ar  
     5     2    21 1   
     6     3    15 ar  
     7     3    16 1   
     8     4     8 ar  
     9     4     9 ar  
    10     4    10 1   
    11     5     6 ar  
    12     5     9 ar  
    13     5    35 1   
    14     6     7 ar  
    15     7     8 ar  
    16     7    24 1   
    17     8    25 1   
    18    10    11 2   
    19    10    15 1   
    20    11    12 1   
    21    11    26 1   
    22    12    13 1   
    23    12    27 1   
    24    13    14 ar  
    25    13    15 ar  
    26    16    17 1   
    27    17    18 1   
    28    17    28 1   
    29    17    29 1   
    30    18    19 1   
    31    18    30 1   
    32    18    31 1   
    33    19    32 1   
    34    19    33 1   
    35    19    34 1   
    36    22    35 1   
    37    23    35 1   
@<TRIPOS>SUBSTRUCTURE
     1 MHR         1 TEMP              0 ****  ****    0 ROOT
