@<TRIPOS>MOLECULE
MHS
   22    22     1     0     0
SMALL
No Charge or Current Charge


@<TRIPOS>ATOM
      1 N           62.1410    60.0460    59.7360 n8         1 MHS      -0.879800
      2 CA          61.3980    60.0420    58.4180 c3         1 MHS       0.026500
      3 C           60.6900    58.6830    57.9850 c          1 MHS       0.934600
      4 O           59.4690    58.6670    57.8630 o          1 MHS      -0.833800
      5 CB          62.3250    60.5590    57.2860 c3         1 MHS      -0.048100
      6 CG          62.9050    61.9340    57.5380 cc         1 MHS      -0.170900
      7 ND1         62.2270    63.1320    57.4210 na         1 MHS      -0.183900
      8 CD2         64.1870    62.2760    57.8970 cd         1 MHS       0.255200
      9 CE1         63.1190    64.1390    57.7270 cc         1 MHS       0.357400
     10 NE2         64.3140    63.6460    58.0170 nd         1 MHS      -0.688000
     11 CM          60.8180    63.3190    57.0410 c3         1 MHS       0.031600
     12 OXT         61.3760    57.6720    57.8520 o          1 MHS      -0.833800
     13 H           62.6420    60.9360    59.8260 hn         1 MHS       0.327800
     14 H2          62.8800    59.3360    59.7030 hn         1 MHS       0.327800
     15 HA          60.5900    60.7760    58.5250 h1         1 MHS       0.039700
     16 HB2         63.1400    59.8400    57.1340 hc         1 MHS       0.059200
     17 HB3         61.7600    60.5700    56.3460 hc         1 MHS       0.059200
     18 HD2         65.0240    61.6120    58.0760 h4         1 MHS       0.029100
     19 HE1         62.8410    65.1870    57.7160 h5         1 MHS       0.035100
     20 HM1         60.6290    64.3760    56.8170 h1         1 MHS       0.051033
     21 HM2         60.5890    62.7180    56.1520 h1         1 MHS       0.051033
     22 HM3         60.1690    63.0060    57.8690 h1         1 MHS       0.051033
@<TRIPOS>BOND
     1     1     2 1   
     2     1    13 1   
     3     1    14 1   
     4     2     3 1   
     5     2     5 1   
     6     2    15 1   
     7     3     4 1   
     8     3    12 1   
     9     5     6 1   
    10     5    16 1   
    11     5    17 1   
    12     6     7 1   
    13     6     8 2   
    14     7     9 1   
    15     7    11 1   
    16     8    10 1   
    17     8    18 1   
    18     9    10 2   
    19     9    19 1   
    20    11    20 1   
    21    11    21 1   
    22    11    22 1   
@<TRIPOS>SUBSTRUCTURE
     1 MHS         1 TEMP              0 ****  ****    0 ROOT
