@<TRIPOS>MOLECULE
MHS
   22    22     1     0     0
SMALL
bcc


@<TRIPOS>ATOM
      1 N           62.2240    59.9370    59.7000 n8         1 MHS      -0.879800
      2 CA          61.4330    60.0940    58.4960 c3         1 MHS       0.026500
      3 C           60.7720    58.7580    58.0810 c          1 MHS       0.934600
      4 O           59.7230    58.8540    57.4140 o          1 MHS      -0.833800
      5 CB          62.2390    60.6100    57.2770 c3         1 MHS      -0.048100
      6 CG          62.8740    61.9340    57.5030 cc         1 MHS      -0.170900
      7 ND1         62.2060    63.1280    57.3960 na         1 MHS      -0.183900
      8 CD2         64.1380    62.2790    57.9030 cd         1 MHS       0.255200
      9 CE1         63.0790    64.1070    57.7210 cc         1 MHS       0.357400
     10 NE2         64.2560    63.6340    58.0330 nd         1 MHS      -0.688000
     11 CM          60.8320    63.3150    56.9950 c3         1 MHS       0.031600
     12 OXT         61.3690    57.7110    58.4000 o          1 MHS      -0.833800
     13 H           62.8220    60.7450    59.8360 hn         1 MHS       0.327800
     14 H2          62.8340    59.1380    59.5800 hn         1 MHS       0.327800
     15 HA          60.6360    60.8170    58.7000 h1         1 MHS       0.039700
     16 HB2         63.0260    59.8850    57.0510 hc         1 MHS       0.059200
     17 HB3         61.5870    60.6450    56.3990 hc         1 MHS       0.059200
     18 HD2         64.9660    61.6110    58.0900 h4         1 MHS       0.029100
     19 HE1         62.7940    65.1500    57.7060 h5         1 MHS       0.035100
     20 HM1         60.6270    64.3800    56.9170 h1         1 MHS       0.051033
     21 HM2         60.6470    62.8580    56.0250 h1         1 MHS       0.051033
     22 HM3         60.1480    62.8820    57.7230 h1         1 MHS       0.051033
@<TRIPOS>BOND
     1     1     2 1   
     2     1    13 1   
     3     1    14 1   
     4     2     3 1   
     5     2     5 1   
     6     2    15 1   
     7     3     4 1   
     8     3    12 1   
     9     5     6 1   
    10     5    16 1   
    11     5    17 1   
    12     6     7 1   
    13     6     8 2   
    14     7     9 1   
    15     7    11 1   
    16     8    10 1   
    17     8    18 1   
    18     9    10 2   
    19     9    19 1   
    20    11    20 1   
    21    11    21 1   
    22    11    22 1   
@<TRIPOS>SUBSTRUCTURE
     1 MHS         1 TEMP              0 ****  ****    0 ROOT
