@<TRIPOS>MOLECULE
MHT
   25    26     1     0     0
SMALL
abcg2


@<TRIPOS>ATOM
      1 N1          -1.4310    -1.0130    -0.6880 n3         1 MHT      -0.677600
      2 C2          -0.1020    -1.3300    -0.1920 c6         1 MHT       0.152800
      3 C3           0.4980    -0.1600     0.6290 c6         1 MHT       0.047300
      4 S3           2.0020     0.5540    -0.1110 ss         1 MHT      -0.437000
      5 C4          -0.5800     0.9240     0.7510 c6         1 MHT      -0.051700
      6 C5          -0.9820     1.4290    -0.6360 c6         1 MHT      -0.107400
      7 C6          -1.3740     0.2030    -1.4920 c6         1 MHT       0.146800
      8 C7          -2.3360    -0.8150     0.4390 c6         1 MHT       0.146800
      9 C8          -1.8090     0.2800     1.3980 c6         1 MHT      -0.107400
     10 CM           3.1440    -0.8280     0.1050 c3         1 MHT       0.040900
     11 H2          -0.1670    -2.2290     0.4260 h1         1 MHT       0.058700
     12 H2A          0.5360    -1.5780    -1.0440 h1         1 MHT       0.058700
     13 H3           0.7710    -0.4990     1.6320 h1         1 MHT       0.066700
     14 H4          -0.2140     1.7440     1.3710 hc         1 MHT       0.067700
     15 H5          -1.8210     2.1220    -0.5320 hc         1 MHT       0.049450
     16 H5A         -0.1720     1.9920    -1.1070 hc         1 MHT       0.049450
     17 H6          -0.6470     0.0440    -2.2920 h1         1 MHT       0.055200
     18 H6A         -2.3470     0.3530    -1.9670 h1         1 MHT       0.055200
     19 H7          -3.3180    -0.5470     0.0410 h1         1 MHT       0.055200
     20 H7A         -2.4550    -1.7670     0.9600 h1         1 MHT       0.055200
     21 H8          -1.5440    -0.1410     2.3710 hc         1 MHT       0.049450
     22 H8A         -2.5690     1.0430     1.5790 hc         1 MHT       0.049450
     23 HM           4.1040    -0.5280    -0.3120 h1         1 MHT       0.058700
     24 HMA          3.2830    -1.0670     1.1590 h1         1 MHT       0.058700
     25 HMB          2.8040    -1.7170    -0.4250 h1         1 MHT       0.058700
@<TRIPOS>BOND
     1     1     2 1   
     2     1     7 1   
     3     1     8 1   
     4     2     3 1   
     5     2    11 1   
     6     2    12 1   
     7     3     4 1   
     8     3     5 1   
     9     3    13 1   
    10     4    10 1   
    11     5     6 1   
    12     5     9 1   
    13     5    14 1   
    14     6     7 1   
    15     6    15 1   
    16     6    16 1   
    17     7    17 1   
    18     7    18 1   
    19     8     9 1   
    20     8    19 1   
    21     8    20 1   
    22     9    21 1   
    23     9    22 1   
    24    10    23 1   
    25    10    24 1   
    26    10    25 1   
@<TRIPOS>SUBSTRUCTURE
     1 MHT         1 TEMP              0 ****  ****    0 ROOT
