@<TRIPOS>MOLECULE
MHT
   25    26     1     0     0
SMALL
No Charge or Current Charge


@<TRIPOS>ATOM
      1 N1          -1.4840    -1.0220    -0.7280 n3         1 MHT      -0.677600
      2 C2          -0.0560    -1.2850    -0.3500 c6         1 MHT       0.152800
      3 C3           0.5200    -0.1340     0.5490 c6         1 MHT       0.047300
      4 S3           2.1430     0.5380    -0.0550 ss         1 MHT      -0.437000
      5 C4          -0.5700     0.9660     0.7160 c6         1 MHT      -0.051700
      6 C5          -1.0170     1.4520    -0.6950 c6         1 MHT      -0.107400
      7 C6          -1.5570     0.2430    -1.5240 c6         1 MHT       0.146800
      8 C7          -2.3140    -0.8850     0.5100 c6         1 MHT       0.146800
      9 C8          -1.8060     0.3030     1.3900 c6         1 MHT      -0.107400
     10 CM           3.2440    -0.9130     0.2720 c3         1 MHT       0.040900
     11 H2           0.0310    -2.2400     0.1900 h1         1 MHT       0.058700
     12 H2A          0.5590    -1.3820    -1.2560 h1         1 MHT       0.058700
     13 H3           0.7230    -0.5530     1.5460 h1         1 MHT       0.066700
     14 H4          -0.1960     1.8020     1.3230 hc         1 MHT       0.067700
     15 H5          -1.7990     2.2190    -0.6020 hc         1 MHT       0.049450
     16 H5A         -0.1810     1.9280    -1.2240 hc         1 MHT       0.049450
     17 H6          -0.9700     0.1480    -2.4490 h1         1 MHT       0.055200
     18 H6A         -2.5950     0.4460    -1.8270 h1         1 MHT       0.055200
     19 H7          -3.3690    -0.7170     0.2480 h1         1 MHT       0.055200
     20 H7A         -2.2790    -1.8140     1.1000 h1         1 MHT       0.055200
     21 H8          -1.5460    -0.0580     2.3940 hc         1 MHT       0.049450
     22 H8A         -2.6090     1.0400     1.5220 hc         1 MHT       0.049450
     23 HM           4.2740    -0.6690    -0.0190 h1         1 MHT       0.058700
     24 HMA          3.2240    -1.1640     1.3400 h1         1 MHT       0.058700
     25 HMB          2.9050    -1.7810    -0.3090 h1         1 MHT       0.058700
@<TRIPOS>BOND
     1     1     2 1   
     2     1     7 1   
     3     1     8 1   
     4     2     3 1   
     5     2    11 1   
     6     2    12 1   
     7     3     4 1   
     8     3     5 1   
     9     3    13 1   
    10     4    10 1   
    11     5     6 1   
    12     5     9 1   
    13     5    14 1   
    14     6     7 1   
    15     6    15 1   
    16     6    16 1   
    17     7    17 1   
    18     7    18 1   
    19     8     9 1   
    20     8    19 1   
    21     8    20 1   
    22     9    21 1   
    23     9    22 1   
    24    10    23 1   
    25    10    24 1   
    26    10    25 1   
@<TRIPOS>SUBSTRUCTURE
     1 MHT         1 TEMP              0 ****  ****    0 ROOT
