@<TRIPOS>MOLECULE
MHU
   33    33     1     0     0
SMALL
abcg2


@<TRIPOS>ATOM
      1 N          -22.4560    17.4120   -20.4860 n7         1 MHU      -0.835400
      2 CA         -21.3990    17.1740   -21.4670 c3         1 MHU       0.035500
      3 C          -21.7390    15.9080   -22.2950 c          1 MHU       0.732000
      4 O          -21.3230    14.8140   -21.8590 o          1 MHU      -0.731000
      5 CB         -19.9790    17.1380   -20.8790 c3         1 MHU      -0.039100
      6 CG         -18.9250    17.1510   -21.9490 ca         1 MHU      -0.075300
      7 CD1        -18.6250    18.3190   -22.6480 ca         1 MHU      -0.061500
      8 CE1        -17.6950    18.3500   -23.6750 ca         1 MHU      -0.185000
      9 CZ         -16.9970    17.1910   -24.0570 ca         1 MHU       0.294000
     10 CE2        -17.3020    16.0110   -23.3560 ca         1 MHU      -0.185000
     11 CD2        -18.2400    16.0040   -22.3350 ca         1 MHU      -0.061500
     12 NZ         -16.0550    17.2130   -25.0610 nh         1 MHU      -0.827400
     13 CZ1        -15.9690    18.3750   -25.9130 c3         1 MHU       0.218600
     14 CZ2        -15.5670    15.9590   -25.5860 c3         1 MHU       0.218600
     15 CM         -22.5800    16.4410   -19.4150 c3         1 MHU       0.161100
     16 OXT        -22.4280    16.0860   -23.3190 o          1 MHU      -0.731000
     17 H          -22.3030    18.3240   -20.0750 hn         1 MHU       0.361000
     18 HA         -21.4430    18.0320   -22.1480 h1         1 MHU       0.042700
     19 HM1        -22.9150    15.4800   -19.8010 h1         1 MHU       0.015700
     20 HM2        -21.6610    16.2600   -18.8410 h1         1 MHU       0.015700
     21 HM3        -23.3370    16.7910   -18.7120 h1         1 MHU       0.015700
     22 HB1        -19.8550    18.0140   -20.2320 hc         1 MHU       0.027700
     23 HB2        -19.8550    16.2590   -20.2450 hc         1 MHU       0.027700
     24 HD1        -19.1350    19.2400   -22.3870 ha         1 MHU       0.113000
     25 HD2        -18.4490    15.0680   -21.8320 ha         1 MHU       0.113000
     26 HE1        -17.5190    19.2920   -24.1760 ha         1 MHU       0.095000
     27 HE2        -16.8120    15.0800   -23.6050 ha         1 MHU       0.095000
     28 H11        -15.7110    19.2700   -25.3430 h1         1 MHU       0.025033
     29 H12        -15.1800    18.2250   -26.6450 h1         1 MHU       0.025033
     30 H13        -16.8990    18.5820   -26.4560 h1         1 MHU       0.025033
     31 H21        -14.8300    16.1570   -26.3600 h1         1 MHU       0.025033
     32 H22        -15.0690    15.3700   -24.8140 h1         1 MHU       0.025033
     33 H23        -16.3570    15.3370   -26.0230 h1         1 MHU       0.025033
@<TRIPOS>BOND
     1     1     2 1   
     2     1    15 1   
     3     1    17 1   
     4     2     3 1   
     5     2     5 1   
     6     2    18 1   
     7     3     4 1   
     8     3    16 1   
     9     5     6 1   
    10     5    22 1   
    11     5    23 1   
    12     6     7 ar  
    13     6    11 ar  
    14     7     8 ar  
    15     7    24 1   
    16     8     9 ar  
    17     8    26 1   
    18     9    10 ar  
    19     9    12 1   
    20    10    11 ar  
    21    10    27 1   
    22    11    25 1   
    23    12    13 1   
    24    12    14 1   
    25    13    28 1   
    26    13    29 1   
    27    13    30 1   
    28    14    31 1   
    29    14    32 1   
    30    14    33 1   
    31    15    19 1   
    32    15    20 1   
    33    15    21 1   
@<TRIPOS>SUBSTRUCTURE
     1 MHU         1 TEMP              0 ****  ****    0 ROOT
