@<TRIPOS>MOLECULE
MHU
   33    33     1     0     0
SMALL
No Charge or Current Charge


@<TRIPOS>ATOM
      1 N          -22.4770    17.4510   -20.3610 n7         1 MHU      -0.835400
      2 CA         -21.5000    17.0790   -21.4540 c3         1 MHU       0.035500
      3 C          -21.7900    15.7030   -22.1910 c          1 MHU       0.732000
      4 O          -21.3690    14.6570   -21.7090 o          1 MHU      -0.731000
      5 CB         -20.0390    17.1780   -20.9290 c3         1 MHU      -0.039100
      6 CG         -19.0100    17.1790   -22.0550 ca         1 MHU      -0.075300
      7 CD1        -18.8310    18.3250   -22.8500 ca         1 MHU      -0.061500
      8 CE1        -17.8820    18.3300   -23.8870 ca         1 MHU      -0.185000
      9 CZ         -17.0940    17.1900   -24.1510 ca         1 MHU       0.294000
     10 CE2        -17.2790    16.0460   -23.3480 ca         1 MHU      -0.185000
     11 CD2        -18.2270    16.0390   -22.3090 ca         1 MHU      -0.061500
     12 NZ         -16.1360    17.1960   -25.1990 nh         1 MHU      -0.827400
     13 CZ1        -15.5050    18.4530   -25.6650 c3         1 MHU       0.218600
     14 CZ2        -15.7220    15.9450   -25.8760 c3         1 MHU       0.218600
     15 CM         -22.6310    16.4920   -19.2480 c3         1 MHU       0.161100
     16 OXT        -22.4340    15.7350   -23.2340 o          1 MHU      -0.731000
     17 H          -22.1930    18.3550   -19.9670 hn         1 MHU       0.361000
     18 HA         -21.5900    17.8450   -22.2360 h1         1 MHU       0.042700
     19 HM1        -22.9750    15.5150   -19.6130 h1         1 MHU       0.015700
     20 HM2        -21.6830    16.3490   -18.7130 h1         1 MHU       0.015700
     21 HM3        -23.3720    16.8620   -18.5280 h1         1 MHU       0.015700
     22 HB1        -19.9290    18.1050   -20.3520 hc         1 MHU       0.027700
     23 HB2        -19.8380    16.3610   -20.2260 hc         1 MHU       0.027700
     24 HD1        -19.4300    19.2150   -22.6650 ha         1 MHU       0.113000
     25 HD2        -18.3520    15.1450   -21.7030 ha         1 MHU       0.113000
     26 HE1        -17.7750    19.2250   -24.4910 ha         1 MHU       0.095000
     27 HE2        -16.6830    15.1540   -23.5140 ha         1 MHU       0.095000
     28 H11        -15.3250    19.1300   -24.8190 h1         1 MHU       0.025033
     29 H12        -14.5360    18.2500   -26.1400 h1         1 MHU       0.025033
     30 H13        -16.1520    18.9600   -26.3940 h1         1 MHU       0.025033
     31 H21        -15.3370    16.1560   -26.8830 h1         1 MHU       0.025033
     32 H22        -14.9360    15.4390   -25.3010 h1         1 MHU       0.025033
     33 H23        -16.5770    15.2650   -25.9840 h1         1 MHU       0.025033
@<TRIPOS>BOND
     1     1     2 1   
     2     1    15 1   
     3     1    17 1   
     4     2     3 1   
     5     2     5 1   
     6     2    18 1   
     7     3     4 1   
     8     3    16 1   
     9     5     6 1   
    10     5    22 1   
    11     5    23 1   
    12     6     7 ar  
    13     6    11 ar  
    14     7     8 ar  
    15     7    24 1   
    16     8     9 ar  
    17     8    26 1   
    18     9    10 ar  
    19     9    12 1   
    20    10    11 ar  
    21    10    27 1   
    22    11    25 1   
    23    12    13 1   
    24    12    14 1   
    25    13    28 1   
    26    13    29 1   
    27    13    30 1   
    28    14    31 1   
    29    14    32 1   
    30    14    33 1   
    31    15    19 1   
    32    15    20 1   
    33    15    21 1   
@<TRIPOS>SUBSTRUCTURE
     1 MHU         1 TEMP              0 ****  ****    0 ROOT
