@<TRIPOS>MOLECULE
MHV
   18    18     1     0     0
SMALL
No Charge or Current Charge


@<TRIPOS>ATOM
      1 N          -22.4060    16.1230   -23.9180 n7         1 MHV      -0.830400
      2 CA         -22.1900    17.4860   -24.5380 c6         1 MHV       0.033500
      3 C          -23.4540    18.2200   -25.1710 c          1 MHV       0.726000
      4 O          -24.1610    17.5900   -25.9480 o          1 MHV      -0.722000
      5 CB         -21.0000    17.4430   -25.5260 c6         1 MHV      -0.184400
      6 CG         -21.1450    16.2730   -26.5020 c          1 MHV       0.630100
      7 OD1        -21.0610    16.4190   -27.7170 o          1 MHV      -0.562100
      8 CD2        -21.4370    14.9150   -25.8630 c6         1 MHV      -0.212400
      9 CE         -22.6220    15.0260   -24.8900 c6         1 MHV       0.175800
     10 OXT        -23.8850    19.1940   -24.5660 o          1 MHV      -0.722000
     11 H          -21.5830    15.8860   -23.3510 hn         1 MHV       0.364000
     12 HA         -21.8840    18.1540   -23.7180 h1         1 MHV       0.045700
     13 HE1        -22.7420    14.0750   -24.3490 h1         1 MHV       0.049700
     14 HE2        -23.5510    15.1920   -25.4550 h1         1 MHV       0.049700
     15 HB1        -20.8490    18.3920   -26.0570 hc         1 MHV       0.040700
     16 HB2        -20.1180    17.2260   -24.9080 hc         1 MHV       0.040700
     17 HD1        -21.5890    14.1410   -26.6270 hc         1 MHV       0.038200
     18 HD2        -20.5690    14.6560   -25.2420 hc         1 MHV       0.038200
@<TRIPOS>BOND
     1     1     2 1   
     2     1     9 1   
     3     1    11 1   
     4     2     3 1   
     5     2     5 1   
     6     2    12 1   
     7     3     4 1   
     8     3    10 1   
     9     5     6 1   
    10     5    15 1   
    11     5    16 1   
    12     6     7 2   
    13     6     8 1   
    14     8     9 1   
    15     8    17 1   
    16     8    18 1   
    17     9    13 1   
    18     9    14 1   
@<TRIPOS>SUBSTRUCTURE
     1 MHV         1 TEMP              0 ****  ****    0 ROOT
