@<TRIPOS>MOLECULE
MHV
   18    18     1     0     0
SMALL
abcg2


@<TRIPOS>ATOM
      1 N          -22.3800    16.2150   -23.8520 n7         1 MHV      -0.830400
      2 CA         -22.1250    17.4980   -24.4980 c6         1 MHV       0.033500
      3 C          -23.4280    17.9890   -25.1640 c          1 MHV       0.726000
      4 O          -23.6040    17.6100   -26.3430 o          1 MHV      -0.722000
      5 CB         -20.9850    17.4250   -25.5250 c6         1 MHV      -0.184400
      6 CG         -21.1950    16.3190   -26.5200 c          1 MHV       0.630100
      7 OD1        -20.9560    16.4300   -27.7050 o          1 MHV      -0.562100
      8 CD2        -21.5800    15.0000   -25.8960 c6         1 MHV      -0.212400
      9 CE         -22.6310    15.1320   -24.7840 c6         1 MHV       0.175800
     10 OXT        -24.1960    18.6860   -24.4780 o          1 MHV      -0.722000
     11 H          -21.5850    15.9760   -23.2720 hn         1 MHV       0.364000
     12 HA         -21.8400    18.1990   -23.7090 h1         1 MHV       0.045700
     13 HE1        -22.6750    14.2000   -24.2190 h1         1 MHV       0.049700
     14 HE2        -23.6150    15.2640   -25.2360 h1         1 MHV       0.049700
     15 HB1        -20.8390    18.3780   -26.0360 hc         1 MHV       0.040700
     16 HB2        -20.0530    17.1980   -24.9910 hc         1 MHV       0.040700
     17 HD1        -21.9020    14.2950   -26.6640 hc         1 MHV       0.038200
     18 HD2        -20.6590    14.5980   -25.4550 hc         1 MHV       0.038200
@<TRIPOS>BOND
     1     1     2 1   
     2     1     9 1   
     3     1    11 1   
     4     2     3 1   
     5     2     5 1   
     6     2    12 1   
     7     3     4 1   
     8     3    10 1   
     9     5     6 1   
    10     5    15 1   
    11     5    16 1   
    12     6     7 2   
    13     6     8 1   
    14     8     9 1   
    15     8    17 1   
    16     8    18 1   
    17     9    13 1   
    18     9    14 1   
@<TRIPOS>SUBSTRUCTURE
     1 MHV         1 TEMP              0 ****  ****    0 ROOT
