@<TRIPOS>MOLECULE
MHW
   14    14     1     0     0
SMALL
bcc


@<TRIPOS>ATOM
      1 N          -21.1820    22.5980   -24.2360 nb         1 MHW      -0.603000
      2 CA         -21.7020    23.7260   -23.7640 ca         1 MHW       0.228800
      3 C          -23.2080    23.8190   -23.6100 c          1 MHW       0.832100
      4 O          -23.6260    24.9400   -23.1700 o          1 MHW      -0.783800
      5 CB         -20.8980    24.8270   -23.4030 ca         1 MHW       0.102800
      6 OG1        -21.4280    25.9480   -22.9360 oh         1 MHW      -0.593100
      7 CG2        -19.5130    24.7030   -23.5510 ca         1 MHW      -0.210000
      8 CD         -18.9970    23.5210   -24.0400 ca         1 MHW      -0.222300
      9 CE         -19.8720    22.4910   -24.3740 ca         1 MHW       0.302200
     10 OXT        -23.9090    22.8540   -23.9020 o          1 MHW      -0.783800
     11 HE         -19.4940    21.5520   -24.7630 h4         1 MHW      -0.009900
     12 HG1        -22.4430    25.7430   -22.9470 ho         1 MHW       0.513000
     13 HG2        -18.8660    25.5290   -23.2820 ha         1 MHW       0.121000
     14 HD         -17.9300    23.3920   -24.1660 ha         1 MHW       0.105000
@<TRIPOS>BOND
     1     1     2 ar  
     2     1     9 ar  
     3     2     3 1   
     4     2     5 ar  
     5     3     4 1   
     6     3    10 1   
     7     5     6 1   
     8     5     7 ar  
     9     6    12 1   
    10     7     8 ar  
    11     7    13 1   
    12     8     9 ar  
    13     8    14 1   
    14     9    11 1   
@<TRIPOS>SUBSTRUCTURE
     1 MHW         1 TEMP              0 ****  ****    0 ROOT
