@<TRIPOS>MOLECULE
MHW
   14    14     1     0     0
SMALL
No Charge or Current Charge


@<TRIPOS>ATOM
      1 N          -21.1800    22.5470   -24.2490 nb         1 MHW      -0.603000
      2 CA         -21.7250    23.7120   -23.7650 ca         1 MHW       0.163500
      3 C          -23.2600    23.8240   -23.6070 c          1 MHW       0.621500
      4 O          -23.7270    24.8740   -23.1720 o          1 MHW      -0.678500
      5 CB         -20.8940    24.8200   -23.4060 ca         1 MHW       0.168100
      6 OG1        -21.4120    25.9920   -22.9220 oh         1 MHW      -0.632100
      7 CG2        -19.5020    24.7140   -23.5510 ca         1 MHW      -0.192000
      8 CD         -18.9670    23.5140   -24.0480 ca         1 MHW      -0.139000
      9 CE         -19.8370    22.4620   -24.3820 ca         1 MHW       0.236900
     10 OXT        -23.9690    22.8730   -23.9150 o          1 MHW      -0.678500
     11 HE         -19.4480    21.5210   -24.7690 h4         1 MHW      -0.009900
     12 HG1        -22.4030    25.8520   -22.9000 ho         1 MHW       0.552000
     13 HG2        -18.8510    25.5430   -23.2850 ha         1 MHW       0.103000
     14 HD         -17.8940    23.3950   -24.1740 ha         1 MHW       0.087000
@<TRIPOS>BOND
     1     1     2 ar  
     2     1     9 ar  
     3     2     3 1   
     4     2     5 ar  
     5     3     4 1   
     6     3    10 1   
     7     5     6 1   
     8     5     7 ar  
     9     6    12 1   
    10     7     8 ar  
    11     7    13 1   
    12     8     9 ar  
    13     8    14 1   
    14     9    11 1   
@<TRIPOS>SUBSTRUCTURE
     1 MHW         1 TEMP              0 ****  ****    0 ROOT
