@<TRIPOS>MOLECULE
MHY
   39    40     1     0     0
SMALL
No Charge or Current Charge


@<TRIPOS>ATOM
      1 N1          -1.5950    -2.8190    -1.1210 n8         1 MHY      -0.984200
      2 CA1         -2.3350    -1.8820    -0.1860 c3         1 MHY       0.113200
      3 CB1         -2.6990    -2.5760     1.1700 c3         1 MHY       0.120300
      4 CG1         -3.7280    -3.7170     1.0140 c3         1 MHY      -0.129100
      5 OG1         -1.5270    -3.1070     1.8090 oh         1 MHY      -0.649000
      6 C1          -1.6470    -0.5230     0.0530 cc         1 MHY       0.542900
      7 N2          -0.3150    -0.3520    -0.0130 nd         1 MHY      -0.660300
      8 N3          -2.3450     0.6360     0.3710 n          1 MHY      -0.304300
      9 C2          -1.4650     1.6780     0.5280 c          1 MHY       0.539200
     10 O2          -1.7130     2.8470     0.8010 o          1 MHY      -0.510000
     11 CA2         -0.1770     1.0020     0.2780 cd         1 MHY       0.064400
     12 CA3         -3.8220     0.8050     0.4750 c3         1 MHY      -0.066000
     13 C3          -4.5000     1.2420    -0.8420 c          1 MHY       0.705000
     14 O3          -4.3840     0.5120    -1.8150 o          1 MHY      -0.711000
     15 CB2          1.0550     1.6250     0.3190 ce         1 MHY      -0.134200
     16 CG2          2.4210     1.1200    -0.0120 ca         1 MHY      -0.008800
     17 CD1          2.6330     0.1170    -0.9810 ca         1 MHY      -0.114000
     18 CD2          3.5350     1.6840     0.6400 ca         1 MHY      -0.114000
     19 CE1          3.9340    -0.3250    -1.2780 ca         1 MHY       0.116000
     20 CE2          4.8350     1.2410     0.3440 ca         1 MHY       0.116000
     21 CZ           5.0490     0.2310    -0.6160 ca         1 MHY       0.048100
     22 OH           6.3240    -0.1980    -0.9020 oh         1 MHY      -0.516100
     23 F13          4.1040    -1.2890    -2.2130 f          1 MHY      -0.183000
     24 F17          5.8870     1.7950     0.9900 f          1 MHY      -0.183000
     25 O1          -5.0970     2.3080    -0.8610 o          1 MHY      -0.711000
     26 H1          -0.6400    -2.9440    -0.7620 hn         1 MHY       0.398500
     27 H2          -2.0130    -3.7540    -1.0790 hn         1 MHY       0.398500
     28 H4          -3.2910    -1.6470    -0.6750 h1         1 MHY       0.116700
     29 H5          -3.1560    -1.8160     1.8210 h1         1 MHY       0.092700
     30 H6          -3.3370    -4.5350     0.3970 hc         1 MHY       0.039033
     31 H7          -3.9950    -4.1290     1.9950 hc         1 MHY       0.039033
     32 H8          -4.6470    -3.3440     0.5470 hc         1 MHY       0.039033
     33 H9          -1.3110    -3.9540     1.3640 ho         1 MHY       0.430000
     34 H11         -4.2860    -0.1340     0.7960 h1         1 MHY       0.046200
     35 H12         -4.0420     1.5570     1.2440 h1         1 MHY       0.046200
     36 H13          1.0220     2.6720     0.6220 ha         1 MHY       0.187000
     37 H15          1.7960    -0.3160    -1.5190 ha         1 MHY       0.155000
     38 H16          3.3960     2.4640     1.3840 ha         1 MHY       0.155000
     39 H17          6.9550     0.3070    -0.3440 ho         1 MHY       0.470000
@<TRIPOS>BOND
     1     1     2 1   
     2     1    26 1   
     3     1    27 1   
     4     2     3 1   
     5     2     6 1   
     6     2    28 1   
     7     3     4 1   
     8     3     5 1   
     9     3    29 1   
    10     4    30 1   
    11     4    31 1   
    12     4    32 1   
    13     5    33 1   
    14     6     7 2   
    15     6     8 1   
    16     7    11 1   
    17     8     9 1   
    18     8    12 1   
    19     9    10 2   
    20     9    11 1   
    21    11    15 2   
    22    12    13 1   
    23    12    34 1   
    24    12    35 1   
    25    13    14 1   
    26    13    25 1   
    27    15    16 1   
    28    15    36 1   
    29    16    17 ar  
    30    16    18 ar  
    31    17    19 ar  
    32    17    37 1   
    33    18    20 ar  
    34    18    38 1   
    35    19    21 ar  
    36    19    23 1   
    37    20    21 ar  
    38    20    24 1   
    39    21    22 1   
    40    22    39 1   
@<TRIPOS>SUBSTRUCTURE
     1 MHY         1 TEMP              0 ****  ****    0 ROOT
