@<TRIPOS>MOLECULE
MHY
   39    40     1     0     0
SMALL
abcg2


@<TRIPOS>ATOM
      1 N1          -1.6570    -2.5320    -1.2270 n8         1 MHY      -0.984200
      2 CA1         -2.4330    -1.7720    -0.2720 c3         1 MHY       0.113200
      3 CB1         -2.7720    -2.5050     1.0560 c3         1 MHY       0.120300
      4 CG1         -3.5980    -3.7560     0.8060 c3         1 MHY      -0.129100
      5 OG1         -1.6090    -2.7720     1.8040 oh         1 MHY      -0.649000
      6 C1          -1.7060    -0.5090     0.0550 cc         1 MHY       0.542900
      7 N2          -0.4310    -0.3650    -0.0730 nd         1 MHY      -0.660300
      8 N3          -2.3450     0.5740     0.6210 n          1 MHY      -0.304300
      9 C2          -1.4030     1.5580     0.8140 c          1 MHY       0.539200
     10 O2          -1.6090     2.6810     1.2260 o          1 MHY      -0.510000
     11 CA2         -0.1380     0.9070     0.3920 cd         1 MHY       0.064400
     12 CA3         -3.7610     0.8400     0.5840 c3         1 MHY      -0.066000
     13 C3          -4.2630     1.2220    -0.8290 c          1 MHY       0.705000
     14 O3          -3.4270     1.2000    -1.7460 o          1 MHY      -0.711000
     15 CB2          1.0590     1.5160     0.4740 ce         1 MHY      -0.134200
     16 CG2          2.3630     1.0090     0.0970 ca         1 MHY      -0.008800
     17 CD1          2.5700    -0.2660    -0.4460 ca         1 MHY      -0.114000
     18 CD2          3.4690     1.8450     0.2830 ca         1 MHY      -0.114000
     19 CE1          3.8410    -0.6620    -0.7810 ca         1 MHY       0.116000
     20 CE2          4.7240     1.4090    -0.0670 ca         1 MHY       0.116000
     21 CZ           4.9600     0.1510    -0.6090 ca         1 MHY       0.048100
     22 OH           6.1620    -0.3120    -0.9650 oh         1 MHY      -0.516100
     23 F13          4.0440    -1.8780    -1.3020 f          1 MHY      -0.183000
     24 F17          5.7880     2.2100     0.1100 f          1 MHY      -0.183000
     25 O1          -5.4720     1.5070    -0.8890 o          1 MHY      -0.711000
     26 H1          -0.7540    -2.7840    -0.8460 hn         1 MHY       0.398500
     27 H2          -2.1360    -3.3890    -1.4700 hn         1 MHY       0.398500
     28 H4          -3.3830    -1.5110    -0.7490 h1         1 MHY       0.116700
     29 H5          -3.3640    -1.8260     1.6770 h1         1 MHY       0.092700
     30 H6          -3.0420    -4.5050     0.2380 hc         1 MHY       0.039033
     31 H7          -3.8920    -4.2110     1.7520 hc         1 MHY       0.039033
     32 H8          -4.5070    -3.5210     0.2520 hc         1 MHY       0.039033
     33 H9          -1.1040    -3.4610     1.3580 ho         1 MHY       0.430000
     34 H11         -4.3160    -0.0240     0.9530 h1         1 MHY       0.046200
     35 H12         -3.9680     1.6500     1.2840 h1         1 MHY       0.046200
     36 H13          1.0470     2.5230     0.8770 ha         1 MHY       0.187000
     37 H15          1.7400    -0.9390    -0.6040 ha         1 MHY       0.155000
     38 H16          3.3510     2.8370     0.7010 ha         1 MHY       0.155000
     39 H17          6.8520     0.3400    -0.7940 ho         1 MHY       0.470000
@<TRIPOS>BOND
     1     1     2 1   
     2     1    26 1   
     3     1    27 1   
     4     2     3 1   
     5     2     6 1   
     6     2    28 1   
     7     3     4 1   
     8     3     5 1   
     9     3    29 1   
    10     4    30 1   
    11     4    31 1   
    12     4    32 1   
    13     5    33 1   
    14     6     7 2   
    15     6     8 1   
    16     7    11 1   
    17     8     9 1   
    18     8    12 1   
    19     9    10 2   
    20     9    11 1   
    21    11    15 2   
    22    12    13 1   
    23    12    34 1   
    24    12    35 1   
    25    13    14 1   
    26    13    25 1   
    27    15    16 1   
    28    15    36 1   
    29    16    17 ar  
    30    16    18 ar  
    31    17    19 ar  
    32    17    37 1   
    33    18    20 ar  
    34    18    38 1   
    35    19    21 ar  
    36    19    23 1   
    37    20    21 ar  
    38    20    24 1   
    39    21    22 1   
    40    22    39 1   
@<TRIPOS>SUBSTRUCTURE
     1 MHY         1 TEMP              0 ****  ****    0 ROOT
