@<TRIPOS>MOLECULE
MHZ
   49    51     1     0     0
SMALL
No Charge or Current Charge


@<TRIPOS>ATOM
      1 N            4.3040     0.6840    -5.6180 n8         1 MHZ      -0.772000
      2 NA           3.1970    -0.1080    -5.0620 n7         1 MHZ      -0.640200
      3 CB           2.1450     0.6510    -4.3430 c3         1 MHZ       0.138800
      4 CC           0.9850    -0.2810    -3.9380 c3         1 MHZ      -0.084400
      5 CG          -0.1470     0.4760    -3.2080 c3         1 MHZ       0.166800
      6 ND          -1.2130    -0.3880    -2.6390 n3         1 MHZ      -0.716600
      7 CE          -1.9600    -1.1630    -3.6630 c3         1 MHZ       0.146100
      8 C5          -2.1040     0.3730    -1.7150 c3         1 MHZ       0.143800
      9 C4          -3.0920    -0.4760    -0.8450 c5         1 MHZ       0.163300
     10 O4          -2.3920    -1.4790    -0.0660 os         1 MHZ      -0.423000
     11 C1          -1.8750    -0.8520     1.1320 c5         1 MHZ       0.321300
     12 N9          -0.4290    -0.6540     1.0130 na         1 MHZ      -0.302300
     13 C9           0.4080     0.0390     1.8500 ca         1 MHZ       0.124500
     14 N3           0.1480     0.7500     2.9660 nb         1 MHZ      -0.211000
     15 C2           1.2180     1.3180     3.5710 ca         1 MHZ       0.175900
     16 N1           2.5090     1.2410     3.1700 nb         1 MHZ      -0.304000
     17 C6           2.7360     0.5280     2.0570 ca         1 MHZ       0.447900
     18 N6           4.0330     0.4420     1.6580 nv         1 MHZ      -1.069900
     19 C7           1.6820    -0.1030     1.3600 ca         1 MHZ      -0.099600
     20 N7           1.7280    -0.8880     0.2140 nc         1 MHZ      -0.568100
     21 C8           0.4290    -1.2010     0.0380 cd         1 MHZ       0.409700
     22 C10         -2.7370     0.4560     1.3480 c5         1 MHZ       0.081300
     23 O2          -3.3420     0.5580     2.6570 oh         1 MHZ      -0.689000
     24 C3          -3.8400     0.3420     0.2500 c5         1 MHZ       0.110300
     25 O3          -4.9730    -0.3450     0.7920 oh         1 MHZ      -0.704000
     26 HN1          5.1220     0.7660    -4.9900 hn         1 MHZ       0.390500
     27 HN2          4.6460     0.3360    -6.5300 hn         1 MHZ       0.390500
     28 HNA1         3.5150    -0.9210    -4.4990 hn         1 MHZ       0.404000
     29 HB1          1.7490     1.4530    -4.9810 h1         1 MHZ       0.039700
     30 HB2          2.5600     1.1180    -3.4380 h1         1 MHZ       0.039700
     31 HCC1         1.3650    -1.0730    -3.2820 hc         1 MHZ       0.056700
     32 HCC2         0.5890    -0.7610    -4.8400 hc         1 MHZ       0.056700
     33 HG1         -0.5870     1.2070    -3.9000 h1         1 MHZ       0.030700
     34 HG2          0.3200     1.0480    -2.3950 h1         1 MHZ       0.030700
     35 HE1         -2.6910    -1.8360    -3.1970 h1         1 MHZ       0.037033
     36 HE2         -2.4980    -0.4920    -4.3460 h1         1 MHZ       0.037033
     37 HE3         -1.2870    -1.7920    -4.2580 h1         1 MHZ       0.037033
     38 H5'1        -1.4840     0.9740    -1.0370 h1         1 MHZ       0.035200
     39 H5'2        -2.7020     1.0890    -2.2950 h1         1 MHZ       0.035200
     40 H4          -3.8060    -0.9740    -1.5130 h1         1 MHZ       0.099700
     41 H1          -2.0100    -1.5370     1.9790 h2         1 MHZ       0.120700
     42 H2           1.0200     1.8940     4.4730 h5         1 MHZ       0.044100
     43 HN61         4.7560     0.6470     2.3420 hn         1 MHZ       0.505500
     44 HN62         4.2520    -0.2630     0.9590 hn         1 MHZ       0.505500
     45 H8           0.0410    -1.8270    -0.7590 h5         1 MHZ       0.099800
     46 H6          -2.1190     1.3440     1.1510 h1         1 MHZ       0.057700
     47 HO2         -2.6430     0.8680     3.2830 ho         1 MHZ       0.515000
     48 H3          -4.1380     1.3320    -0.1230 h1         1 MHZ       0.054700
     49 HO3         -4.8390    -0.2230     1.7680 ho         1 MHZ       0.525000
@<TRIPOS>BOND
     1     1     2 1   
     2     1    26 1   
     3     1    27 1   
     4     2     3 1   
     5     2    28 1   
     6     3     4 1   
     7     3    29 1   
     8     3    30 1   
     9     4     5 1   
    10     4    31 1   
    11     4    32 1   
    12     5     6 1   
    13     5    33 1   
    14     5    34 1   
    15     6     7 1   
    16     6     8 1   
    17     7    35 1   
    18     7    36 1   
    19     7    37 1   
    20     8     9 1   
    21     8    38 1   
    22     8    39 1   
    23     9    10 1   
    24     9    24 1   
    25     9    40 1   
    26    10    11 1   
    27    11    12 1   
    28    11    22 1   
    29    11    41 1   
    30    12    13 1   
    31    12    21 1   
    32    13    14 ar  
    33    13    19 ar  
    34    14    15 ar  
    35    15    16 ar  
    36    15    42 1   
    37    16    17 ar  
    38    17    18 1   
    39    17    19 ar  
    40    18    43 1   
    41    18    44 1   
    42    19    20 1   
    43    20    21 2   
    44    21    45 1   
    45    22    23 1   
    46    22    24 1   
    47    22    46 1   
    48    23    47 1   
    49    24    25 1   
    50    24    48 1   
    51    25    49 1   
@<TRIPOS>SUBSTRUCTURE
     1 MHZ         1 TEMP              0 ****  ****    0 ROOT
