@<TRIPOS>MOLECULE
MHZ
   49    51     1     0     0
SMALL
abcg2


@<TRIPOS>ATOM
      1 N            3.9180     0.8520    -5.9590 n8         1 MHZ      -0.772000
      2 NA           3.0590    -0.0980    -5.2850 n7         1 MHZ      -0.640200
      3 CB           1.8470     0.5840    -4.8660 c3         1 MHZ       0.138800
      4 CC           0.9680    -0.3530    -4.0530 c3         1 MHZ      -0.084400
      5 CG          -0.3040     0.3430    -3.5910 c3         1 MHZ       0.166800
      6 ND          -1.1250    -0.4760    -2.7120 n3         1 MHZ      -0.716600
      7 CE          -1.7470    -1.5780    -3.4170 c3         1 MHZ       0.146100
      8 C5          -2.0900     0.3390    -2.0050 c3         1 MHZ       0.143800
      9 C4          -2.8690    -0.4070    -0.9240 c5         1 MHZ       0.163300
     10 O4          -2.0240    -1.1940    -0.0820 os         1 MHZ      -0.423000
     11 C1          -1.7120    -0.5110     1.0900 c5         1 MHZ       0.321300
     12 N9          -0.2670    -0.3920     1.1920 na         1 MHZ      -0.302300
     13 C9           0.4520    -0.2130     2.3370 ca         1 MHZ       0.124500
     14 N3           0.0140    -0.1710     3.5950 nb         1 MHZ      -0.211000
     15 C2           1.0040     0.0090     4.4500 ca         1 MHZ       0.175900
     16 N1           2.3040     0.1500     4.1980 nb         1 MHZ      -0.304000
     17 C6           2.7280     0.1030     2.9300 ca         1 MHZ       0.447900
     18 N6           4.0290     0.2460     2.6700 nv         1 MHZ      -1.069900
     19 C7           1.7700    -0.0930     1.9200 ca         1 MHZ      -0.099600
     20 N7           1.8620    -0.2010     0.5580 nc         1 MHZ      -0.568100
     21 C8           0.6340    -0.3770     0.1610 cd         1 MHZ       0.409700
     22 C10         -2.4260     0.8500     1.0180 c5         1 MHZ       0.081300
     23 O2          -2.8630     1.2310     2.2890 oh         1 MHZ      -0.689000
     24 C3          -3.5580     0.5610     0.0220 c5         1 MHZ       0.110300
     25 O3          -4.6240    -0.0970     0.6530 oh         1 MHZ      -0.704000
     26 HN1          4.7860     0.3520    -6.1220 hn         1 MHZ       0.390500
     27 HN2          3.5250     0.9440    -6.8910 hn         1 MHZ       0.390500
     28 HNA1         3.5630    -0.3410    -4.4390 hn         1 MHZ       0.404000
     29 HB1          1.3060     0.9010    -5.7640 h1         1 MHZ       0.039700
     30 HB2          2.0620     1.4970    -4.2920 h1         1 MHZ       0.039700
     31 HCC1         1.5170    -0.7060    -3.1730 hc         1 MHZ       0.056700
     32 HCC2         0.7390    -1.2340    -4.6560 hc         1 MHZ       0.056700
     33 HG1         -0.8750     0.6910    -4.4690 h1         1 MHZ       0.030700
     34 HG2         -0.0180     1.2430    -3.0380 h1         1 MHZ       0.030700
     35 HE1         -2.2710    -2.2380    -2.7270 h1         1 MHZ       0.037033
     36 HE2         -2.4680    -1.2460    -4.1800 h1         1 MHZ       0.037033
     37 HE3         -0.9930    -2.1850    -3.9160 h1         1 MHZ       0.037033
     38 H5'1        -1.5470     1.1770    -1.5550 h1         1 MHZ       0.035200
     39 H5'2        -2.8380     0.7910    -2.6800 h1         1 MHZ       0.035200
     40 H4          -3.5900    -1.0870    -1.3830 h1         1 MHZ       0.099700
     41 H1          -2.0470    -1.0680     1.9700 h2         1 MHZ       0.120700
     42 H2           0.7280     0.0500     5.4980 h5         1 MHZ       0.044100
     43 HN61         4.6860     0.3760     3.4200 hn         1 MHZ       0.505500
     44 HN62         4.3810     0.1970     1.7300 hn         1 MHZ       0.505500
     45 H8           0.3170    -0.5300    -0.8640 h5         1 MHZ       0.099800
     46 H6          -1.7500     1.5970     0.5890 h1         1 MHZ       0.057700
     47 HO2         -2.9680     2.1880     2.3070 ho         1 MHZ       0.515000
     48 H3          -3.8880     1.4730    -0.4940 h1         1 MHZ       0.054700
     49 HO3         -4.7920     0.3470     1.4920 ho         1 MHZ       0.525000
@<TRIPOS>BOND
     1     1     2 1   
     2     1    26 1   
     3     1    27 1   
     4     2     3 1   
     5     2    28 1   
     6     3     4 1   
     7     3    29 1   
     8     3    30 1   
     9     4     5 1   
    10     4    31 1   
    11     4    32 1   
    12     5     6 1   
    13     5    33 1   
    14     5    34 1   
    15     6     7 1   
    16     6     8 1   
    17     7    35 1   
    18     7    36 1   
    19     7    37 1   
    20     8     9 1   
    21     8    38 1   
    22     8    39 1   
    23     9    10 1   
    24     9    24 1   
    25     9    40 1   
    26    10    11 1   
    27    11    12 1   
    28    11    22 1   
    29    11    41 1   
    30    12    13 1   
    31    12    21 1   
    32    13    14 ar  
    33    13    19 ar  
    34    14    15 ar  
    35    15    16 ar  
    36    15    42 1   
    37    16    17 ar  
    38    17    18 1   
    39    17    19 ar  
    40    18    43 1   
    41    18    44 1   
    42    19    20 1   
    43    20    21 2   
    44    21    45 1   
    45    22    23 1   
    46    22    24 1   
    47    22    46 1   
    48    23    47 1   
    49    24    25 1   
    50    24    48 1   
    51    25    49 1   
@<TRIPOS>SUBSTRUCTURE
     1 MHZ         1 TEMP              0 ****  ****    0 ROOT
