@<TRIPOS>MOLECULE
MI0
   40    40     1     0     0
SMALL
bcc


@<TRIPOS>ATOM
      1 F1           2.2210    -1.4140     0.6250 f          1 MI0      -0.236800
      2 F2           1.8100    -1.3590    -1.5130 f          1 MI0      -0.236800
      3 N1          -0.2450    -0.2110     1.6940 n8         1 MI0      -0.935800
      4 N2           4.4470    -0.1060     0.1680 ns         1 MI0      -0.552900
      5 O1           1.5020     1.4060     0.7070 oh         1 MI0      -0.593800
      6 O2           3.6190     0.7220    -1.7640 o          1 MI0      -0.576100
      7 C1          -0.3040    -0.1200     0.2390 c3         1 MI0       0.140500
      8 C2          -1.4370     0.7970    -0.2190 c3         1 MI0      -0.087400
      9 C3          -2.8490     0.3780     0.1920 c6         1 MI0      -0.063700
     10 C4          -3.2130    -1.0310    -0.2770 c6         1 MI0      -0.072900
     11 C5          -3.8640     1.3910    -0.3410 c6         1 MI0      -0.072900
     12 C6          -4.6450    -1.4040     0.0980 c6         1 MI0      -0.073400
     13 C7          -5.2940     1.0230     0.0420 c6         1 MI0      -0.073400
     14 C8          -5.6490    -0.3840    -0.4280 c6         1 MI0      -0.075400
     15 C9           1.0490     0.4790    -0.2320 c3         1 MI0       0.114100
     16 C10          2.1320    -0.5740    -0.4490 c3         1 MI0       0.308600
     17 C11          3.4910     0.0740    -0.7380 c          1 MI0       0.643100
     18 C12          5.7590     0.4800     0.0170 c3         1 MI0       0.095300
     19 H1          -1.1340     0.0060     2.1230 hn         1 MI0       0.366800
     20 H2           1.0810     1.0910     1.5390 ho         1 MI0       0.446000
     21 H3          -0.4530    -1.1010    -0.2230 h1         1 MI0       0.054700
     22 H4          -1.2460     1.8120     0.1490 hc         1 MI0       0.057700
     23 H5          -1.3960     0.8550    -1.3110 hc         1 MI0       0.057700
     24 H6          -2.9300     0.3970     1.2880 hc         1 MI0       0.039700
     25 H7          -3.0970    -1.0840    -1.3670 hc         1 MI0       0.040450
     26 H8          -2.5230    -1.7660     0.1470 hc         1 MI0       0.040450
     27 H9          -3.6190     2.3890     0.0320 hc         1 MI0       0.040450
     28 H10         -3.7790     1.4380    -1.4330 hc         1 MI0       0.040450
     29 H11         -4.8820    -2.4000    -0.2850 hc         1 MI0       0.038950
     30 H12         -4.7290    -1.4650     1.1880 hc         1 MI0       0.038950
     31 H13         -5.3990     1.0770     1.1310 hc         1 MI0       0.038950
     32 H14         -5.9940     1.7520    -0.3740 hc         1 MI0       0.038950
     33 H15         -5.6520    -0.4110    -1.5230 hc         1 MI0       0.040200
     34 H16         -6.6600    -0.6470    -0.1080 hc         1 MI0       0.040200
     35 H17          0.9110     0.9750    -1.1990 h1         1 MI0       0.097700
     36 H18          6.3750     0.1590     0.8510 h1         1 MI0       0.044033
     37 H19          6.2340     0.1560    -0.9090 h1         1 MI0       0.044033
     38 H20          5.7130     1.5690     0.0180 h1         1 MI0       0.044033
     39 H21          4.2600    -0.6510     0.9920 hn         1 MI0       0.332500
     40 H22          0.0190    -1.1350     2.0050 hn         1 MI0       0.366800
@<TRIPOS>BOND
     1     1    16 1   
     2     2    16 1   
     3     3     7 1   
     4     3    19 1   
     5     3    40 1   
     6     4    17 1   
     7     4    18 1   
     8     4    39 1   
     9     5    15 1   
    10     5    20 1   
    11     6    17 2   
    12     7     8 1   
    13     7    15 1   
    14     7    21 1   
    15     8     9 1   
    16     8    22 1   
    17     8    23 1   
    18     9    10 1   
    19     9    11 1   
    20     9    24 1   
    21    10    12 1   
    22    10    25 1   
    23    10    26 1   
    24    11    13 1   
    25    11    27 1   
    26    11    28 1   
    27    12    14 1   
    28    12    29 1   
    29    12    30 1   
    30    13    14 1   
    31    13    31 1   
    32    13    32 1   
    33    14    33 1   
    34    14    34 1   
    35    15    16 1   
    36    15    35 1   
    37    16    17 1   
    38    18    36 1   
    39    18    37 1   
    40    18    38 1   
@<TRIPOS>SUBSTRUCTURE
     1 MI0         1 TEMP              0 ****  ****    0 ROOT
