@<TRIPOS>MOLECULE
MI0
   40    40     1     0     0
SMALL
No Charge or Current Charge


@<TRIPOS>ATOM
      1 F1           2.3580    -1.3290     0.8480 f          1 MI0      -0.115500
      2 F2           1.7580    -1.5370    -1.2270 f          1 MI0      -0.115500
      3 N1          -0.3050    -0.1050     1.8430 n8         1 MI0      -1.046200
      4 N2           4.5820    -0.0450     0.1070 ns         1 MI0      -0.485900
      5 O1           1.5130     1.3870     0.8910 oh         1 MI0      -0.656000
      6 O2           3.6760     0.4630    -1.9150 o          1 MI0      -0.576100
      7 C1          -0.2790    -0.0560     0.3490 c3         1 MI0       0.140500
      8 C2          -1.4430     0.8390    -0.1580 c3         1 MI0      -0.087400
      9 C3          -2.8980     0.3840     0.1990 c6         1 MI0      -0.063700
     10 C4          -3.2450    -1.0220    -0.3740 c6         1 MI0      -0.072900
     11 C5          -3.9330     1.4340    -0.2980 c6         1 MI0      -0.072900
     12 C6          -4.6990    -1.4360    -0.0330 c6         1 MI0      -0.073400
     13 C7          -5.3840     1.0180     0.0480 c6         1 MI0      -0.073400
     14 C8          -5.7160    -0.3800    -0.5260 c6         1 MI0      -0.075400
     15 C9           1.1130     0.4710    -0.1320 c3         1 MI0       0.137300
     16 C10          2.1950    -0.6370    -0.3110 c3         1 MI0       0.066000
     17 C11          3.5340    -0.0100    -0.7930 c          1 MI0       0.576100
     18 C12          5.9220     0.4820    -0.1620 c3         1 MI0       0.095300
     19 H1          -1.2780    -0.2400     2.1470 hn         1 MI0       0.422000
     20 H2           0.8860     1.0910     1.6120 ho         1 MI0       0.485000
     21 H3          -0.4360    -1.0700    -0.0430 h1         1 MI0       0.054700
     22 H4          -1.2820     1.8560     0.2200 hc         1 MI0       0.057700
     23 H5          -1.3590     0.9140    -1.2500 hc         1 MI0       0.057700
     24 H6          -2.9640     0.3420     1.2950 hc         1 MI0       0.039700
     25 H7          -3.1080    -1.0260    -1.4640 hc         1 MI0       0.040450
     26 H8          -2.5610    -1.7810     0.0290 hc         1 MI0       0.040450
     27 H9          -3.7190     2.4140     0.1510 hc         1 MI0       0.040450
     28 H10         -3.8400     1.5640    -1.3860 hc         1 MI0       0.040450
     29 H11         -4.9240    -2.4100    -0.4880 hc         1 MI0       0.038950
     30 H12         -4.8000    -1.5690     1.0530 hc         1 MI0       0.038950
     31 H13         -5.5180     1.0130     1.1380 hc         1 MI0       0.038950
     32 H14         -6.0890     1.7610    -0.3500 hc         1 MI0       0.038950
     33 H15         -5.7080    -0.3420    -1.6240 hc         1 MI0       0.040200
     34 H16         -6.7320    -0.6730    -0.2300 hc         1 MI0       0.040200
     35 H17          0.9960     0.9850    -1.0970 h1         1 MI0       0.097700
     36 H18          6.5590     0.3320     0.7200 h1         1 MI0       0.044033
     37 H19          6.3620    -0.0450    -1.0180 h1         1 MI0       0.044033
     38 H20          5.8600     1.5540    -0.3860 h1         1 MI0       0.044033
     39 H21          4.3880    -0.4510     1.0150 hn         1 MI0       0.332500
     40 H22          0.1470    -0.9760     2.1540 hn         1 MI0       0.422000
@<TRIPOS>BOND
     1     1    16 1   
     2     2    16 1   
     3     3     7 1   
     4     3    19 1   
     5     3    40 1   
     6     4    17 1   
     7     4    18 1   
     8     4    39 1   
     9     5    15 1   
    10     5    20 1   
    11     6    17 2   
    12     7     8 1   
    13     7    15 1   
    14     7    21 1   
    15     8     9 1   
    16     8    22 1   
    17     8    23 1   
    18     9    10 1   
    19     9    11 1   
    20     9    24 1   
    21    10    12 1   
    22    10    25 1   
    23    10    26 1   
    24    11    13 1   
    25    11    27 1   
    26    11    28 1   
    27    12    14 1   
    28    12    29 1   
    29    12    30 1   
    30    13    14 1   
    31    13    31 1   
    32    13    32 1   
    33    14    33 1   
    34    14    34 1   
    35    15    16 1   
    36    15    35 1   
    37    16    17 1   
    38    18    36 1   
    39    18    37 1   
    40    18    38 1   
@<TRIPOS>SUBSTRUCTURE
     1 MI0         1 TEMP              0 ****  ****    0 ROOT
