@<TRIPOS>MOLECULE
MI1
   43    45     1     0     0
SMALL
bcc


@<TRIPOS>ATOM
      1 C1          -0.3410    -0.1730    -0.3170 c6         1 MI1       0.224500
      2 C2          -1.5280     0.7070    -0.7160 c6         1 MI1       0.084000
      3 C4          -2.9100    -1.2440    -1.1360 c6         1 MI1       0.100000
      4 C5          -1.7470    -2.1770    -0.8300 c6         1 MI1      -0.093400
      5 C6          -0.3810    -1.5200    -1.0610 c6         1 MI1      -0.076700
      6 N3          -2.7550    -0.0010    -0.3950 n          1 MI1      -0.476800
      7 O21         -3.3320     1.4280     1.2640 o          1 MI1      -0.576100
      8 C20         -3.5460     0.4250     0.6020 c          1 MI1       0.680100
      9 C22         -4.7900    -0.4160     0.8830 c3         1 MI1      -0.100300
     10 C23         -5.5790     0.1930     1.9380 c1         1 MI1       0.220700
     11 N24         -6.2320     0.6450     2.7690 n1         1 MI1      -0.348800
     12 C7          -0.0410    -1.3990    -2.5440 c3         1 MI1      -0.089100
     13 N8           0.9430     0.5120    -0.4460 nh         1 MI1      -0.771300
     14 C9           1.1740     1.4790    -1.4990 c3         1 MI1       0.211100
     15 C10          1.9680     0.1330     0.3530 ca         1 MI1       0.764200
     16 C15          3.2970     0.6170     0.2340 ca         1 MI1      -0.377400
     17 C16          4.0660     1.4940    -0.6050 cc         1 MI1      -0.156200
     18 C11          5.3400     1.4790    -0.1260 cd         1 MI1      -0.131100
     19 N12          5.4130     0.6440     0.9570 na         1 MI1      -0.266100
     20 C14          4.1950     0.1070     1.1930 ca         1 MI1       0.471800
     21 N17          3.9170    -0.7660     2.1640 nb         1 MI1      -0.757000
     22 C18          2.6570    -1.1430     2.1500 ca         1 MI1       0.706900
     23 N19          1.6990    -0.7560     1.3170 nb         1 MI1      -0.837000
     24 H1          -0.4690    -0.3850     0.7450 h1         1 MI1       0.099700
     25 H2          -1.5020     1.6600    -0.1930 h1         1 MI1       0.068200
     26 H2A         -1.5520     0.9130    -1.7890 h1         1 MI1       0.068200
     27 H4          -2.9550    -1.0040    -2.2020 h1         1 MI1       0.049700
     28 H4A         -3.8540    -1.7240    -0.8920 h1         1 MI1       0.049700
     29 H5          -1.8260    -2.5020     0.2120 hc         1 MI1       0.053700
     30 H5A         -1.8350    -3.0730    -1.4480 hc         1 MI1       0.053700
     31 H6           0.3720    -2.1640    -0.6000 hc         1 MI1       0.073700
     32 H22         -5.4180    -0.5110    -0.0050 hc         1 MI1       0.086200
     33 H22A        -4.5250    -1.4290     1.1960 hc         1 MI1       0.086200
     34 H7           0.9880    -1.0690    -2.6920 hc         1 MI1       0.034033
     35 H7A         -0.1390    -2.3690    -3.0320 hc         1 MI1       0.034033
     36 H7B         -0.6890    -0.7020    -3.0800 hc         1 MI1       0.034033
     37 H9           0.2390     1.7600    -1.9700 h1         1 MI1       0.042033
     38 H9A          1.6070     2.3950    -1.0990 h1         1 MI1       0.042033
     39 H9B          1.8290     1.0960    -2.2850 h1         1 MI1       0.042033
     40 H16          3.7430     2.0620    -1.4580 ha         1 MI1       0.151000
     41 H11          6.2140     2.0030    -0.4760 h4         1 MI1       0.166000
     42 H18          2.3570    -1.8600     2.9080 h5         1 MI1       0.043100
     43 HN12         6.2440     0.4530     1.4930 hn         1 MI1       0.311700
@<TRIPOS>BOND
     1     1     2 1   
     2     1     5 1   
     3     1    13 1   
     4     1    24 1   
     5     2     6 1   
     6     2    25 1   
     7     2    26 1   
     8     3     4 1   
     9     3     6 1   
    10     3    27 1   
    11     3    28 1   
    12     4     5 1   
    13     4    29 1   
    14     4    30 1   
    15     5    12 1   
    16     5    31 1   
    17     6     8 1   
    18     7     8 2   
    19     8     9 1   
    20     9    10 1   
    21     9    32 1   
    22     9    33 1   
    23    10    11 3   
    24    12    34 1   
    25    12    35 1   
    26    12    36 1   
    27    13    14 1   
    28    13    15 1   
    29    14    37 1   
    30    14    38 1   
    31    14    39 1   
    32    15    16 ar  
    33    15    23 ar  
    34    16    17 1   
    35    16    20 ar  
    36    17    18 2   
    37    17    40 1   
    38    18    19 1   
    39    18    41 1   
    40    19    20 1   
    41    19    43 1   
    42    20    21 ar  
    43    21    22 ar  
    44    22    23 ar  
    45    22    42 1   
@<TRIPOS>SUBSTRUCTURE
     1 MI1         1 TEMP              0 ****  ****    0 ROOT
