@<TRIPOS>MOLECULE
MI1
   43    45     1     0     0
SMALL
No Charge or Current Charge


@<TRIPOS>ATOM
      1 C1          -0.1110    -0.4870    -0.2550 c6         1 MI1       0.224500
      2 C2          -1.2630     0.5600    -0.1680 c6         1 MI1       0.084000
      3 C4          -2.9650    -1.2760    -0.4590 c6         1 MI1       0.100000
      4 C5          -1.8120    -2.3050    -0.5500 c6         1 MI1      -0.093400
      5 C6          -0.5190    -1.7000    -1.1450 c6         1 MI1      -0.076700
      6 N3          -2.6000     0.0060     0.2250 n          1 MI1      -0.409800
      7 O21         -3.4020     2.1250     0.6070 o          1 MI1      -0.576100
      8 C20         -3.6090     0.9170     0.6290 c          1 MI1       0.613100
      9 C22         -4.9410     0.3840     1.1530 c3         1 MI1      -0.100300
     10 C23         -5.9540     0.4000     0.1030 c1         1 MI1       0.309900
     11 N24         -6.7670     0.3830    -0.7310 n1         1 MI1      -0.438000
     12 C7          -0.6730    -1.3870    -2.6640 c3         1 MI1      -0.089100
     13 N8           1.2120     0.1170    -0.6370 nh         1 MI1      -0.771300
     14 C9           1.2480     1.2230    -1.6250 c3         1 MI1       0.211100
     15 C10          2.4040    -0.3430    -0.0190 ca         1 MI1       0.435900
     16 C15          3.4800     0.4950     0.3530 ca         1 MI1      -0.246800
     17 C16          3.6720     1.9190     0.2820 cc         1 MI1      -0.206200
     18 C11          4.9200     2.1860     0.8170 cd         1 MI1      -0.181100
     19 N12          5.5050     0.9630     1.2240 na         1 MI1      -0.316400
     20 C14          4.5980    -0.0470     0.9420 ca         1 MI1       0.143500
     21 N17          4.6920    -1.3660     1.1830 nb         1 MI1      -0.231000
     22 C18          3.6260    -2.1110     0.8160 ca         1 MI1       0.180900
     23 N19          2.4890    -1.6670     0.2330 nb         1 MI1      -0.311000
     24 H1          -0.0130    -0.8760     0.7710 h1         1 MI1       0.099700
     25 H2          -0.9640     1.3280     0.5580 h1         1 MI1       0.068200
     26 H2A         -1.3800     1.0640    -1.1370 h1         1 MI1       0.068200
     27 H4          -3.3130    -1.0380    -1.4740 h1         1 MI1       0.049700
     28 H4A         -3.8010    -1.7680     0.0530 h1         1 MI1       0.049700
     29 H5          -1.6020    -2.6930     0.4570 hc         1 MI1       0.053700
     30 H5A         -2.1350    -3.1710    -1.1440 hc         1 MI1       0.053700
     31 H6           0.2660    -2.4660    -1.0790 hc         1 MI1       0.073700
     32 H22         -4.8440    -0.6440     1.5110 hc         1 MI1       0.086200
     33 H22A        -5.2920     1.0310     1.9630 hc         1 MI1       0.086200
     34 H7           0.2900    -1.1170    -3.1130 hc         1 MI1       0.034033
     35 H7A         -1.0400    -2.2650    -3.2100 hc         1 MI1       0.034033
     36 H7B         -1.3750    -0.5670    -2.8510 hc         1 MI1       0.034033
     37 H9           0.5250     1.0620    -2.4330 h1         1 MI1       0.042033
     38 H9A          1.0120     2.1800    -1.1410 h1         1 MI1       0.042033
     39 H9B          2.2410     1.2970    -2.0860 h1         1 MI1       0.042033
     40 H16          2.9810     2.6730    -0.0890 ha         1 MI1       0.201000
     41 H11          5.4240     3.1430     0.9460 h4         1 MI1       0.216000
     42 H18          3.6880    -3.1800     1.0100 h5         1 MI1       0.043100
     43 HN12         6.4160     0.8380     1.6550 hn         1 MI1       0.362000
@<TRIPOS>BOND
     1     1     2 1   
     2     1     5 1   
     3     1    13 1   
     4     1    24 1   
     5     2     6 1   
     6     2    25 1   
     7     2    26 1   
     8     3     4 1   
     9     3     6 1   
    10     3    27 1   
    11     3    28 1   
    12     4     5 1   
    13     4    29 1   
    14     4    30 1   
    15     5    12 1   
    16     5    31 1   
    17     6     8 1   
    18     7     8 2   
    19     8     9 1   
    20     9    10 1   
    21     9    32 1   
    22     9    33 1   
    23    10    11 3   
    24    12    34 1   
    25    12    35 1   
    26    12    36 1   
    27    13    14 1   
    28    13    15 1   
    29    14    37 1   
    30    14    38 1   
    31    14    39 1   
    32    15    16 ar  
    33    15    23 ar  
    34    16    17 1   
    35    16    20 ar  
    36    17    18 2   
    37    17    40 1   
    38    18    19 1   
    39    18    41 1   
    40    19    20 1   
    41    19    43 1   
    42    20    21 ar  
    43    21    22 ar  
    44    22    23 ar  
    45    22    42 1   
@<TRIPOS>SUBSTRUCTURE
     1 MI1         1 TEMP              0 ****  ****    0 ROOT
