@<TRIPOS>MOLECULE
MI2
   34    36     1     0     0
SMALL
abcg2


@<TRIPOS>ATOM
      1 C1          -3.6030    49.2390     1.3750 ca         1 MI2      -0.109800
      2 C2          -3.6250    49.0450     2.7740 ca         1 MI2      -0.036200
      3 N3          -2.3500    49.1850     3.2260 na         1 MI2      -0.212700
      4 C4          -1.5120    49.4690     2.1750 cc         1 MI2      -0.007300
      5 C5          -2.2490    49.5090     1.0200 cd         1 MI2      -0.220200
      6 C6          -0.0740    49.6970     2.3500 ca         1 MI2      -0.046800
      7 C7           0.4940    50.8100     1.7270 ca         1 MI2      -0.086000
      8 C8           1.8490    51.0780     1.8340 ca         1 MI2      -0.114000
      9 C9           2.6550    50.2270     2.5750 ca         1 MI2      -0.098000
     10 C10          2.1000    49.1130     3.1880 ca         1 MI2      -0.113000
     11 C11          0.7410    48.8220     3.0880 ca         1 MI2      -0.061300
     12 C12          0.2060    47.5770     3.7390 c3         1 MI2      -0.052800
     13 C13         -4.8050    48.7650     3.4620 ca         1 MI2      -0.130000
     14 C14         -5.9640    48.6640     2.7240 ca         1 MI2      -0.076000
     15 C15         -5.9730    48.8440     1.3250 ca         1 MI2      -0.231900
     16 C16         -4.7960    49.1370     0.6530 ca         1 MI2      -0.025000
     17 C17         -7.2560    48.6920     0.5860 ce         1 MI2       0.664800
     18 N18         -8.1910    47.8780     0.9030 n2         1 MI2      -0.851100
     19 N19         -7.3780    49.4720    -0.5280 nv         1 MI2      -1.031200
     20 HN3         -2.0760    49.1620     4.1940 hn         1 MI2       0.352000
     21 H5          -1.8580    49.6910     0.0310 ha         1 MI2       0.209000
     22 H7          -0.1440    51.4800     1.1640 ha         1 MI2       0.120000
     23 H8           2.2680    51.9490     1.3480 ha         1 MI2       0.117000
     24 H9           3.7150    50.4240     2.6720 ha         1 MI2       0.115000
     25 H10          2.7380    48.4410     3.7490 ha         1 MI2       0.113000
     26 H121        -0.2810    47.7900     4.6930 hc         1 MI2       0.045367
     27 H122         1.0160    46.8800     3.9480 hc         1 MI2       0.045367
     28 H123        -0.5210    47.0660     3.1070 hc         1 MI2       0.045367
     29 H13         -4.8150    48.6360     4.5360 ha         1 MI2       0.117000
     30 H14         -6.8940    48.4630     3.2410 ha         1 MI2       0.116000
     31 H16         -4.7890    49.2640    -0.4220 ha         1 MI2       0.126000
     32 HN18        -7.9090    47.2970     1.6840 hn         1 MI2       0.386400
     33 H191        -6.9120    50.3640    -0.5320 hn         1 MI2       0.465500
     34 H192        -8.2880    49.4820    -0.9620 hn         1 MI2       0.465500
@<TRIPOS>BOND
     1     1     2 ar  
     2     1     5 1   
     3     1    16 ar  
     4     2     3 1   
     5     2    13 ar  
     6     3     4 1   
     7     3    20 1   
     8     4     5 2   
     9     4     6 1   
    10     5    21 1   
    11     6     7 ar  
    12     6    11 ar  
    13     7     8 ar  
    14     7    22 1   
    15     8     9 ar  
    16     8    23 1   
    17     9    10 ar  
    18     9    24 1   
    19    10    11 ar  
    20    10    25 1   
    21    11    12 1   
    22    12    26 1   
    23    12    27 1   
    24    12    28 1   
    25    13    14 ar  
    26    13    29 1   
    27    14    15 ar  
    28    14    30 1   
    29    15    16 ar  
    30    15    17 1   
    31    16    31 1   
    32    17    18 2   
    33    17    19 1   
    34    18    32 1   
    35    19    33 1   
    36    19    34 1   
@<TRIPOS>SUBSTRUCTURE
     1 MI2         1 TEMP              0 ****  ****    0 ROOT
