@<TRIPOS>MOLECULE
MI2
   34    36     1     0     0
SMALL
No Charge or Current Charge


@<TRIPOS>ATOM
      1 C1          -3.6550    49.2390     1.4650 ca         1 MI2      -0.109800
      2 C2          -3.6800    48.9090     2.7920 ca         1 MI2      -0.036200
      3 N3          -2.4020    49.0180     3.3210 na         1 MI2      -0.212700
      4 C4          -1.5120    49.4300     2.3120 cc         1 MI2      -0.007300
      5 C5          -2.2820    49.5640     1.1660 cd         1 MI2      -0.220200
      6 C6          -0.0630    49.6670     2.3630 ca         1 MI2      -0.046800
      7 C7           0.4770    50.7180     1.5900 ca         1 MI2      -0.086000
      8 C8           1.8520    50.9990     1.6120 ca         1 MI2      -0.114000
      9 C9           2.7100    50.2290     2.4090 ca         1 MI2      -0.098000
     10 C10          2.1910    49.1770     3.1790 ca         1 MI2      -0.113000
     11 C11          0.8120    48.8830     3.1640 ca         1 MI2      -0.061300
     12 C12          0.3170    47.7010     3.9940 c3         1 MI2      -0.052800
     13 C13         -4.8660    48.5210     3.4210 ca         1 MI2      -0.130000
     14 C14         -6.0470    48.4840     2.6450 ca         1 MI2      -0.076000
     15 C15         -6.0340    48.8460     1.2650 ca         1 MI2      -0.231900
     16 C16         -4.8010    49.2150     0.6620 ca         1 MI2      -0.025000
     17 C17         -7.2760    48.7620     0.4440 ce         1 MI2       0.664800
     18 N18         -8.2670    48.0350     0.7520 n2         1 MI2      -0.851100
     19 N19         -7.4130    49.6250    -0.5770 nv         1 MI2      -1.031200
     20 HN3         -2.1520    48.8400     4.2860 hn         1 MI2       0.352000
     21 H5          -1.9020    49.8490     0.1890 ha         1 MI2       0.209000
     22 H7          -0.1750    51.3360     0.9780 ha         1 MI2       0.120000
     23 H8           2.2510    51.8160     1.0150 ha         1 MI2       0.117000
     24 H9           3.7770    50.4450     2.4280 ha         1 MI2       0.115000
     25 H10          2.8700    48.5830     3.7870 ha         1 MI2       0.113000
     26 H121        -0.1960    48.0420     4.9000 hc         1 MI2       0.045367
     27 H122         1.1440    47.0560     4.3120 hc         1 MI2       0.045367
     28 H123        -0.3740    47.0710     3.4210 hc         1 MI2       0.045367
     29 H13         -4.8820    48.2540     4.4750 ha         1 MI2       0.117000
     30 H14         -6.9750    48.1880     3.1290 ha         1 MI2       0.116000
     31 H16         -4.7310    49.4640    -0.3950 ha         1 MI2       0.126000
     32 HN18        -7.9750    47.4280     1.5280 hn         1 MI2       0.386400
     33 H191        -6.8530    50.4650    -0.5040 hn         1 MI2       0.465500
     34 H192        -8.3690    49.7560    -0.8800 hn         1 MI2       0.465500
@<TRIPOS>BOND
     1     1     2 ar  
     2     1     5 1   
     3     1    16 ar  
     4     2     3 1   
     5     2    13 ar  
     6     3     4 1   
     7     3    20 1   
     8     4     5 2   
     9     4     6 1   
    10     5    21 1   
    11     6     7 ar  
    12     6    11 ar  
    13     7     8 ar  
    14     7    22 1   
    15     8     9 ar  
    16     8    23 1   
    17     9    10 ar  
    18     9    24 1   
    19    10    11 ar  
    20    10    25 1   
    21    11    12 1   
    22    12    26 1   
    23    12    27 1   
    24    12    28 1   
    25    13    14 ar  
    26    13    29 1   
    27    14    15 ar  
    28    14    30 1   
    29    15    16 ar  
    30    15    17 1   
    31    16    31 1   
    32    17    18 2   
    33    17    19 1   
    34    18    32 1   
    35    19    33 1   
    36    19    34 1   
@<TRIPOS>SUBSTRUCTURE
     1 MI2         1 TEMP              0 ****  ****    0 ROOT
