@<TRIPOS>MOLECULE
MI4
   93    98     1     0     0
SMALL
No Charge or Current Charge


@<TRIPOS>ATOM
      1 C16         -1.7280     4.3170    -0.0830 c5         1 MI4      -0.075400
      2 C21          0.8320     6.1470    -0.0620 c3         1 MI4      -0.085100
      3 C34          5.3120    -1.6070    -1.4670 c6         1 MI4      -0.065400
      4 C15         -2.6530     3.0660     0.0720 c5         1 MI4      -0.070400
      5 C13         -0.3660     2.2910     0.2450 c5         1 MI4      -0.035000
      6 C28         -9.0450    -2.7630    -0.8990 c2         1 MI4      -0.299000
      7 C37          4.2170    -1.3250     0.8090 c6         1 MI4      -0.065400
      8 C14         -1.7710     2.0940     0.9080 c5         1 MI4      -0.036500
      9 C33          5.2100    -3.1540    -1.3250 c6         1 MI4      -0.058033
     10 C35          4.1140    -2.8710     0.9530 c6         1 MI4      -0.058033
     11 C30          6.7400    -1.5130     0.6260 c6         1 MI4      -0.065400
     12 C8          -2.1320     0.5910     0.9120 c2         1 MI4      -0.077400
     13 C12          0.6820     1.4860     1.0810 c6         1 MI4      -0.062400
     14 C18         -0.2680     1.8310    -1.2530 c3         1 MI4      -0.081100
     15 C31          6.6410    -3.0590     0.7710 c6         1 MI4      -0.058033
     16 C11          0.3630    -0.0340     1.1060 c6         1 MI4      -0.071400
     17 C7          -3.3620     0.2150     0.4600 ce         1 MI4      -0.190000
     18 C32          6.4940    -3.6990    -0.6380 c6         1 MI4      -0.068400
     19 C22          2.2400     4.0930     0.0620 c2         1 MI4      -0.210200
     20 C24          4.4430     2.9300    -0.4120 c3         1 MI4      -0.073200
     21 C25          4.4660     1.4390    -0.8360 c3         1 MI4       0.168300
     22 C20          0.8720     4.6220    -0.3130 c3         1 MI4      -0.018500
     23 C26          5.6130     0.6330    -0.1600 c3         1 MI4      -0.101400
     24 C17         -0.2980     3.8620     0.3970 c5         1 MI4      -0.050700
     25 C29          5.4590    -0.9290    -0.0630 c6         1 MI4      -0.035000
     26 C3          -7.4250    -0.8190    -0.4930 c6         1 MI4       0.211500
     27 C9          -1.0910    -0.3390     1.5550 c6         1 MI4      -0.041200
     28 C6          -3.9070    -1.1590     0.4840 ce         1 MI4      -0.159000
     29 C38          3.9680    -3.5110    -0.4570 c6         1 MI4      -0.068400
     30 C5          -5.0370    -1.5960    -0.1300 c2         1 MI4      -0.107400
     31 C10         -5.5010    -3.0460     0.0000 c6         1 MI4      -0.031700
     32 C1          -6.9780    -3.1620     0.4640 c6         1 MI4       0.211500
     33 C4          -5.9680    -0.7620    -1.0140 c6         1 MI4      -0.031700
     34 C2          -7.9090    -2.2730    -0.3590 c2         1 MI4      -0.198400
     35 O3           4.5950     1.3750    -2.2630 oh         1 MI4      -0.653000
     36 O1          -7.1080    -2.8130     1.8430 oh         1 MI4      -0.653500
     37 O2          -8.2770    -0.0620    -1.3580 oh         1 MI4      -0.653500
     38 H16         -1.7220     4.6580    -1.1250 hc         1 MI4       0.040700
     39 H16A        -2.0900     5.1600     0.5160 hc         1 MI4       0.040700
     40 H21         -0.1040     6.5850    -0.4260 hc         1 MI4       0.033367
     41 H21A         0.9240     6.3690     1.0080 hc         1 MI4       0.033367
     42 H21B         1.6580     6.6430    -0.5860 hc         1 MI4       0.033367
     43 H34          6.1640    -1.3440    -2.1090 hc         1 MI4       0.040867
     44 H34A         4.4120    -1.2410    -1.9790 hc         1 MI4       0.040867
     45 H15         -3.5930     3.3120     0.5810 hc         1 MI4       0.044700
     46 H15A        -2.9160     2.6580    -0.9100 hc         1 MI4       0.044700
     47 H28         -9.7270    -2.1600    -1.4980 ha         1 MI4       0.167500
     48 H28A        -9.3340    -3.8070    -0.7670 ha         1 MI4       0.167500
     49 H37          3.2890    -0.9500     0.3590 hc         1 MI4       0.040867
     50 H37A         4.2860    -0.8610     1.8040 hc         1 MI4       0.040867
     51 H14         -1.7560     2.4310     1.9530 hc         1 MI4       0.051700
     52 H33          5.1050    -3.6090    -2.3200 hc         1 MI4       0.047367
     53 H35          3.2370    -3.1250     1.5650 hc         1 MI4       0.047367
     54 H30          6.8790    -1.0590     1.6170 hc         1 MI4       0.040867
     55 H30A         7.6360    -1.2550     0.0440 hc         1 MI4       0.040867
     56 H12          1.6920     1.6230     0.6830 hc         1 MI4       0.040200
     57 H12A         0.7050     1.8660     2.1110 hc         1 MI4       0.040200
     58 H18         -0.8280     2.4790    -1.9360 hc         1 MI4       0.037033
     59 H18A         0.7730     1.8420    -1.5990 hc         1 MI4       0.037033
     60 H18B        -0.6490     0.8140    -1.4010 hc         1 MI4       0.037033
     61 H31          7.5500    -3.4420     1.2560 hc         1 MI4       0.047367
     62 H11          0.5370    -0.4680     0.1120 hc         1 MI4       0.040200
     63 H11A         1.0670    -0.5460     1.7760 hc         1 MI4       0.040200
     64 H7          -4.0430     0.9660     0.0750 ha         1 MI4       0.172000
     65 H32          6.4450    -4.7930    -0.5550 hc         1 MI4       0.039033
     66 H32A         7.3770    -3.4730    -1.2520 hc         1 MI4       0.039033
     67 H22          2.4310     4.0630     1.1360 ha         1 MI4       0.163000
     68 H24          5.3010     3.4580    -0.8470 hc         1 MI4       0.045200
     69 H24A         4.5670     2.9910     0.6770 hc         1 MI4       0.045200
     70 H25          3.5070     1.0050    -0.5280 h1         1 MI4       0.075700
     71 H20          0.7430     4.4910    -1.3950 hc         1 MI4       0.052700
     72 H26          6.5550     0.8820    -0.6660 hc         1 MI4       0.041200
     73 H26A         5.7320     1.0150     0.8610 hc         1 MI4       0.041200
     74 H17         -0.1910     4.1090     1.4610 hc         1 MI4       0.043700
     75 H3          -7.4350    -0.3640     0.5090 h1         1 MI4       0.042200
     76 H9          -1.1580    -0.2280     2.6460 hc         1 MI4       0.045700
     77 H9A         -1.2950    -1.3940     1.3430 hc         1 MI4       0.045700
     78 H6          -3.3490    -1.8820     1.0760 ha         1 MI4       0.170000
     79 H38          3.0500    -3.1530    -0.9430 hc         1 MI4       0.039033
     80 H38A         3.8670    -4.6020    -0.3700 hc         1 MI4       0.039033
     81 H10         -5.3990    -3.5360    -0.9770 hc         1 MI4       0.058200
     82 H10A        -4.8540    -3.6090     0.6870 hc         1 MI4       0.058200
     83 H1          -7.2810    -4.2120     0.3320 h1         1 MI4       0.042200
     84 H4          -5.9350    -1.1600    -2.0380 hc         1 MI4       0.058200
     85 H4A         -5.6530     0.2830    -1.0930 hc         1 MI4       0.058200
     86 HO3          5.4610     1.7750    -2.4870 ho         1 MI4       0.435000
     87 HO1         -8.0710    -2.8200     2.0290 ho         1 MI4       0.441500
     88 HO2         -9.1740    -0.1190    -0.9630 ho         1 MI4       0.441500
     89 C23          3.1450     3.6090    -0.8030 c2         1 MI4      -0.216200
     90 C36          5.4000    -3.4160     1.6370 c6         1 MI4      -0.068400
     91 H23          2.9440     3.6130    -1.8760 ha         1 MI4       0.177000
     92 H36          5.5040    -2.9880     2.6440 hc         1 MI4       0.039033
     93 H36A         5.3280    -4.5040     1.7680 hc         1 MI4       0.039033
@<TRIPOS>BOND
     1     1     4 1   
     2     1    24 1   
     3     1    38 1   
     4     1    39 1   
     5     2    22 1   
     6     2    40 1   
     7     2    41 1   
     8     2    42 1   
     9     3     9 1   
    10     3    25 1   
    11     3    43 1   
    12     3    44 1   
    13     4     8 1   
    14     4    45 1   
    15     4    46 1   
    16     5     8 1   
    17     5    13 1   
    18     5    14 1   
    19     5    24 1   
    20     6    34 2   
    21     6    47 1   
    22     6    48 1   
    23     7    10 1   
    24     7    25 1   
    25     7    49 1   
    26     7    50 1   
    27     8    12 1   
    28     8    51 1   
    29     9    18 1   
    30     9    29 1   
    31     9    52 1   
    32    10    29 1   
    33    10    53 1   
    34    10    90 1   
    35    11    15 1   
    36    11    25 1   
    37    11    54 1   
    38    11    55 1   
    39    12    17 2   
    40    12    27 1   
    41    13    16 1   
    42    13    56 1   
    43    13    57 1   
    44    14    58 1   
    45    14    59 1   
    46    14    60 1   
    47    15    18 1   
    48    15    61 1   
    49    15    90 1   
    50    16    27 1   
    51    16    62 1   
    52    16    63 1   
    53    17    28 1   
    54    17    64 1   
    55    18    65 1   
    56    18    66 1   
    57    19    22 1   
    58    19    67 1   
    59    19    89 2   
    60    20    21 1   
    61    20    68 1   
    62    20    69 1   
    63    20    89 1   
    64    21    23 1   
    65    21    35 1   
    66    21    70 1   
    67    22    24 1   
    68    22    71 1   
    69    23    25 1   
    70    23    72 1   
    71    23    73 1   
    72    24    74 1   
    73    26    33 1   
    74    26    34 1   
    75    26    37 1   
    76    26    75 1   
    77    27    76 1   
    78    27    77 1   
    79    28    30 2   
    80    28    78 1   
    81    29    79 1   
    82    29    80 1   
    83    30    31 1   
    84    30    33 1   
    85    31    32 1   
    86    31    81 1   
    87    31    82 1   
    88    32    34 1   
    89    32    36 1   
    90    32    83 1   
    91    33    84 1   
    92    33    85 1   
    93    35    86 1   
    94    36    87 1   
    95    37    88 1   
    96    89    91 1   
    97    90    92 1   
    98    90    93 1   
@<TRIPOS>SUBSTRUCTURE
     1 MI4         1 TEMP              0 ****  ****    0 ROOT
