@<TRIPOS>MOLECULE
MI4
   93    98     1     0     0
SMALL
abcg2


@<TRIPOS>ATOM
      1 C16         -1.7750     4.3850    -0.1030 c5         1 MI4      -0.075400
      2 C21          0.8090     5.9670    -0.2610 c3         1 MI4      -0.085100
      3 C34          6.0050    -1.5510    -1.5290 c6         1 MI4      -0.065400
      4 C15         -2.7970     3.2490     0.1150 c5         1 MI4      -0.070400
      5 C13         -0.5800     2.3210     0.3950 c5         1 MI4      -0.035000
      6 C28         -9.0180    -2.6710    -0.9830 c2         1 MI4      -0.299000
      7 C37          4.3530    -1.7270     0.3330 c6         1 MI4      -0.065400
      8 C14         -2.0260     2.2290     0.9410 c5         1 MI4      -0.036500
      9 C33          6.1990    -3.0700    -1.5060 c6         1 MI4      -0.058033
     10 C35          4.5420    -3.2470     0.3590 c6         1 MI4      -0.058033
     11 C30          6.7740    -1.4300     0.8310 c6         1 MI4      -0.065400
     12 C8          -2.5020     0.8170     1.0680 c2         1 MI4      -0.077400
     13 C12          0.3340     1.5520     1.3500 c6         1 MI4      -0.062400
     14 C18         -0.4810     1.7480    -1.0210 c3         1 MI4      -0.081100
     15 C31          6.9690    -2.9460     0.8630 c6         1 MI4      -0.058033
     16 C11         -0.1360     0.1120     1.5550 c6         1 MI4      -0.071400
     17 C7          -3.5900     0.3510     0.4330 ce         1 MI4      -0.190000
     18 C32          7.3260    -3.4390    -0.5410 c6         1 MI4      -0.068400
     19 C22          2.0870     3.8640     0.0100 c2         1 MI4      -0.210200
     20 C24          4.2460     2.6570    -0.3770 c3         1 MI4      -0.073200
     21 C25          4.2600     1.1480    -0.6680 c3         1 MI4       0.168300
     22 C20          0.7700     4.4420    -0.4110 c3         1 MI4      -0.018500
     23 C26          5.5080     0.5000    -0.0770 c3         1 MI4      -0.101400
     24 C17         -0.4020     3.8550     0.3860 c5         1 MI4      -0.050700
     25 C29          5.6400    -1.0290    -0.1300 c6         1 MI4      -0.035000
     26 C3          -7.5370    -0.6950    -0.5540 c6         1 MI4       0.211500
     27 C9          -1.6080     0.0170     1.9770 c6         1 MI4      -0.041200
     28 C6          -4.1260    -0.9950     0.5200 ce         1 MI4      -0.159000
     29 C38          4.8990    -3.7350    -1.0460 c6         1 MI4      -0.068400
     30 C5          -5.2080    -1.4710    -0.1160 c2         1 MI4      -0.107400
     31 C10         -5.6700    -2.8830     0.0930 c6         1 MI4      -0.031700
     32 C1          -7.1160    -2.9200     0.5870 c6         1 MI4       0.211500
     33 C4          -6.0850    -0.6850    -1.0460 c6         1 MI4      -0.031700
     34 C2          -7.9840    -2.1220    -0.3550 c2         1 MI4      -0.198400
     35 O3           4.0940     0.9040    -2.0510 oh         1 MI4      -0.653000
     36 O1          -7.1340    -2.3790     1.8930 oh         1 MI4      -0.653500
     37 O2          -8.3140     0.0190    -1.4820 oh         1 MI4      -0.653500
     38 H16         -1.7220     4.6630    -1.1590 hc         1 MI4       0.040700
     39 H16A        -2.0610     5.2890     0.4360 hc         1 MI4       0.040700
     40 H21         -0.1280     6.4290    -0.5760 hc         1 MI4       0.033367
     41 H21A         0.9850     6.2530     0.7790 hc         1 MI4       0.033367
     42 H21B         1.6110     6.3950    -0.8630 hc         1 MI4       0.033367
     43 H34          6.9210    -1.0570    -1.8750 hc         1 MI4       0.040867
     44 H34A         5.2190    -1.2990    -2.2440 hc         1 MI4       0.040867
     45 H15         -3.7040     3.5870     0.6190 hc         1 MI4       0.044700
     46 H15A        -3.1060     2.8260    -0.8430 hc         1 MI4       0.044700
     47 H28         -9.6320    -2.1260    -1.6890 ha         1 MI4       0.167500
     48 H28A        -9.2840    -3.7070    -0.8140 ha         1 MI4       0.167500
     49 H37          3.5250    -1.4810    -0.3400 hc         1 MI4       0.040867
     50 H37A         4.0690    -1.3650     1.3280 hc         1 MI4       0.040867
     51 H14         -1.9670     2.6250     1.9680 hc         1 MI4       0.051700
     52 H33          6.4500    -3.4140    -2.5140 hc         1 MI4       0.047367
     53 H35          3.6110    -3.7200     0.6860 hc         1 MI4       0.047367
     54 H30          6.5470    -1.0630     1.8390 hc         1 MI4       0.040867
     55 H30A         7.7050    -0.9390     0.5230 hc         1 MI4       0.040867
     56 H12          1.3630     1.5490     0.9860 hc         1 MI4       0.040200
     57 H12A         0.3490     2.0700     2.3160 hc         1 MI4       0.040200
     58 H18         -1.0730     2.3160    -1.7410 hc         1 MI4       0.037033
     59 H18A         0.5530     1.7620    -1.3690 hc         1 MI4       0.037033
     60 H18B        -0.8280     0.7150    -1.0690 hc         1 MI4       0.037033
     61 H31          7.7780    -3.1930     1.5570 hc         1 MI4       0.047367
     62 H11          0.0090    -0.4610     0.6350 hc         1 MI4       0.040200
     63 H11A         0.4850    -0.3710     2.3130 hc         1 MI4       0.040200
     64 H7          -4.1300     1.0490    -0.1960 ha         1 MI4       0.172000
     65 H32          7.4800    -4.5230    -0.5360 hc         1 MI4       0.039033
     66 H32A         8.2680    -2.9870    -0.8700 hc         1 MI4       0.039033
     67 H22          2.3210     3.9320     1.0730 ha         1 MI4       0.163000
     68 H24          5.1030     3.1180    -0.8840 hc         1 MI4       0.045200
     69 H24A         4.3950     2.8160     0.6950 hc         1 MI4       0.045200
     70 H25          3.3760     0.7140    -0.1900 h1         1 MI4       0.075700
     71 H20          0.6160     4.2110    -1.4710 hc         1 MI4       0.052700
     72 H26          6.3980     0.9520    -0.5380 hc         1 MI4       0.041200
     73 H26A         5.5410     0.7990     0.9770 hc         1 MI4       0.041200
     74 H17         -0.2710     4.1600     1.4340 hc         1 MI4       0.043700
     75 H3          -7.5520    -0.1920     0.4240 h1         1 MI4       0.042200
     76 H9          -1.7050     0.4180     2.9940 hc         1 MI4       0.045700
     77 H9A         -1.9040    -1.0300     2.0340 hc         1 MI4       0.045700
     78 H6          -3.6070    -1.6910     1.1720 ha         1 MI4       0.170000
     79 H38          4.0880    -3.5010    -1.7430 hc         1 MI4       0.039033
     80 H38A         5.0130    -4.8250    -1.0500 hc         1 MI4       0.039033
     81 H10         -5.6350    -3.4370    -0.8510 hc         1 MI4       0.058200
     82 H10A        -5.0240    -3.4120     0.7980 hc         1 MI4       0.058200
     83 H1          -7.4610    -3.9630     0.5910 h1         1 MI4       0.042200
     84 H4          -6.0600    -1.1440    -2.0430 hc         1 MI4       0.058200
     85 H4A         -5.7520     0.3470    -1.1600 hc         1 MI4       0.058200
     86 HO3          4.9080     1.1590    -2.4980 ho         1 MI4       0.435000
     87 HO1         -8.0390    -2.4200     2.2180 ho         1 MI4       0.441500
     88 HO2         -9.1870     0.1620    -1.1030 ho         1 MI4       0.441500
     89 C23          2.9650     3.2950    -0.8100 c2         1 MI4      -0.216200
     90 C36          5.6700    -3.6100     1.3260 c6         1 MI4      -0.068400
     91 H23          2.7220     3.2300    -1.8680 ha         1 MI4       0.177000
     92 H36          5.4200    -3.2770     2.3390 hc         1 MI4       0.039033
     93 H36A         5.7940    -4.6970     1.3730 hc         1 MI4       0.039033
@<TRIPOS>BOND
     1     1     4 1   
     2     1    24 1   
     3     1    38 1   
     4     1    39 1   
     5     2    22 1   
     6     2    40 1   
     7     2    41 1   
     8     2    42 1   
     9     3     9 1   
    10     3    25 1   
    11     3    43 1   
    12     3    44 1   
    13     4     8 1   
    14     4    45 1   
    15     4    46 1   
    16     5     8 1   
    17     5    13 1   
    18     5    14 1   
    19     5    24 1   
    20     6    34 2   
    21     6    47 1   
    22     6    48 1   
    23     7    10 1   
    24     7    25 1   
    25     7    49 1   
    26     7    50 1   
    27     8    12 1   
    28     8    51 1   
    29     9    18 1   
    30     9    29 1   
    31     9    52 1   
    32    10    29 1   
    33    10    53 1   
    34    10    90 1   
    35    11    15 1   
    36    11    25 1   
    37    11    54 1   
    38    11    55 1   
    39    12    17 2   
    40    12    27 1   
    41    13    16 1   
    42    13    56 1   
    43    13    57 1   
    44    14    58 1   
    45    14    59 1   
    46    14    60 1   
    47    15    18 1   
    48    15    61 1   
    49    15    90 1   
    50    16    27 1   
    51    16    62 1   
    52    16    63 1   
    53    17    28 1   
    54    17    64 1   
    55    18    65 1   
    56    18    66 1   
    57    19    22 1   
    58    19    67 1   
    59    19    89 2   
    60    20    21 1   
    61    20    68 1   
    62    20    69 1   
    63    20    89 1   
    64    21    23 1   
    65    21    35 1   
    66    21    70 1   
    67    22    24 1   
    68    22    71 1   
    69    23    25 1   
    70    23    72 1   
    71    23    73 1   
    72    24    74 1   
    73    26    33 1   
    74    26    34 1   
    75    26    37 1   
    76    26    75 1   
    77    27    76 1   
    78    27    77 1   
    79    28    30 2   
    80    28    78 1   
    81    29    79 1   
    82    29    80 1   
    83    30    31 1   
    84    30    33 1   
    85    31    32 1   
    86    31    81 1   
    87    31    82 1   
    88    32    34 1   
    89    32    36 1   
    90    32    83 1   
    91    33    84 1   
    92    33    85 1   
    93    35    86 1   
    94    36    87 1   
    95    37    88 1   
    96    89    91 1   
    97    90    92 1   
    98    90    93 1   
@<TRIPOS>SUBSTRUCTURE
     1 MI4         1 TEMP              0 ****  ****    0 ROOT
