@<TRIPOS>MOLECULE
MI5
   50    54     1     0     0
SMALL
abcg2


@<TRIPOS>ATOM
      1 C01          0.9810     1.9250     0.0180 cc         1 MI5      -0.173800
      2 C02          0.6600     0.5840     0.2180 cd         1 MI5       0.404500
      3 N03         -0.6900     0.5710     0.5220 na         1 MI5       0.093900
      4 N04         -1.2260     1.7890     0.5560 nd         1 MI5      -0.593100
      5 C05         -0.2270     2.5990     0.2420 cc         1 MI5       0.402500
      6 N06          1.3970    -0.5300     0.1960 nd         1 MI5      -0.662000
      7 C07          0.7940    -1.6570     0.4950 cc         1 MI5       0.424300
      8 C08         -0.5840    -1.7240     0.8020 cc         1 MI5      -0.296000
      9 C09         -1.3420    -0.5810     0.8030 cd         1 MI5       0.375000
     10 N10         -2.6670    -0.5670     1.1350 nu         1 MI5      -0.924000
     11 C11          1.5830    -2.9310     0.4210 c6         1 MI5      -0.155000
     12 C12          2.2760     2.4710    -0.3290 cc         1 MI5      -0.120800
     13 C13          1.5060    -3.4990    -1.0140 c6         1 MI5       0.156800
     14 N14          2.2420    -4.7330    -1.1920 n7         1 MI5      -0.844400
     15 C15          3.6290    -4.6170    -0.7670 c6         1 MI5       0.147800
     16 C16          3.7910    -4.0950     0.6570 c6         1 MI5      -0.114400
     17 C17          3.0460    -2.7750     0.8320 c6         1 MI5      -0.065400
     18 C18          3.4880     1.7860    -0.5590 cc         1 MI5       0.262900
     19 N19          4.4660     2.6220    -0.8580 nd         1 MI5      -0.531800
     20 N20          3.9210     3.8320    -0.8280 na         1 MI5       0.132800
     21 C21          2.6150     3.7980    -0.5160 cd         1 MI5      -0.172000
     22 C22          4.7250     4.9980    -1.1020 c3         1 MI5       0.075900
     23 C23         -3.7430     0.0980     0.5690 cc         1 MI5       0.155000
     24 S24         -3.7950     1.6290    -0.2380 ss         1 MI5       0.396100
     25 N25         -5.4230     1.5400    -0.5420 nc         1 MI5      -0.546100
     26 C26         -5.9330     0.4460    -0.0430 cd         1 MI5       0.337300
     27 C27         -5.0100    -0.4180     0.5980 cd         1 MI5      -0.268000
     28 C28         -7.3900     0.1490    -0.1780 c3         1 MI5      -0.126400
     29 H05         -0.4060     3.6630     0.1920 h4         1 MI5       0.048800
     30 H08         -1.0500    -2.6750     1.0170 ha         1 MI5       0.136000
     31 HN10        -2.9540    -1.4460     1.5440 hn         1 MI5       0.493000
     32 H11          1.1060    -3.6620     1.0850 hc         1 MI5       0.051700
     33 H13          0.4640    -3.6670    -1.2960 h1         1 MI5       0.060200
     34 H13A         1.9060    -2.7480    -1.7050 h1         1 MI5       0.060200
     35 HN14         1.7930    -5.4670    -0.6560 hn         1 MI5       0.402000
     36 H15          4.1090    -5.5920    -0.8770 h1         1 MI5       0.054700
     37 H15A         4.1390    -3.9380    -1.4590 h1         1 MI5       0.054700
     38 H16          3.4040    -4.8370     1.3640 hc         1 MI5       0.044700
     39 H16A         4.8510    -3.9620     0.8880 hc         1 MI5       0.044700
     40 H17          3.5150    -2.0040     0.2140 hc         1 MI5       0.057200
     41 H17A         3.1130    -2.4300     1.8660 hc         1 MI5       0.057200
     42 H18          3.6630     0.7230    -0.5130 h4         1 MI5       0.051100
     43 H21          2.0260     4.6990    -0.4480 h4         1 MI5       0.150000
     44 H22          5.1730     4.9250    -2.0910 h1         1 MI5       0.054700
     45 H22A         4.0910     5.8790    -1.0670 h1         1 MI5       0.054700
     46 H22B         5.5130     5.1010    -0.3590 h1         1 MI5       0.054700
     47 H27         -5.2660    -1.3710     1.0390 ha         1 MI5       0.141000
     48 H28         -7.5480    -0.7260    -0.8100 hc         1 MI5       0.053033
     49 H28A        -7.8340    -0.0710     0.7930 hc         1 MI5       0.053033
     50 H28B        -7.9200     0.9900    -0.6190 hc         1 MI5       0.053033
@<TRIPOS>BOND
     1     1     2 2   
     2     1     5 1   
     3     1    12 1   
     4     2     3 1   
     5     2     6 1   
     6     3     4 1   
     7     3     9 1   
     8     4     5 2   
     9     5    29 1   
    10     6     7 2   
    11     7     8 1   
    12     7    11 1   
    13     8     9 2   
    14     8    30 1   
    15     9    10 1   
    16    10    23 1   
    17    10    31 1   
    18    11    13 1   
    19    11    17 1   
    20    11    32 1   
    21    12    18 1   
    22    12    21 2   
    23    13    14 1   
    24    13    33 1   
    25    13    34 1   
    26    14    15 1   
    27    14    35 1   
    28    15    16 1   
    29    15    36 1   
    30    15    37 1   
    31    16    17 1   
    32    16    38 1   
    33    16    39 1   
    34    17    40 1   
    35    17    41 1   
    36    18    19 2   
    37    18    42 1   
    38    19    20 1   
    39    20    21 1   
    40    20    22 1   
    41    21    43 1   
    42    22    44 1   
    43    22    45 1   
    44    22    46 1   
    45    23    24 1   
    46    23    27 2   
    47    24    25 1   
    48    25    26 2   
    49    26    27 1   
    50    26    28 1   
    51    27    47 1   
    52    28    48 1   
    53    28    49 1   
    54    28    50 1   
@<TRIPOS>SUBSTRUCTURE
     1 MI5         1 TEMP              0 ****  ****    0 ROOT
