@<TRIPOS>MOLECULE
MI5
   50    54     1     0     0
SMALL
No Charge or Current Charge


@<TRIPOS>ATOM
      1 C01          0.9670     1.8720    -0.2870 cc         1 MI5      -0.173800
      2 C02          0.6170     0.5580    -0.1760 cd         1 MI5       0.404500
      3 N03         -0.7270     0.5740     0.1360 na         1 MI5       0.093900
      4 N04         -1.2880     1.8420     0.2900 nd         1 MI5      -0.593100
      5 C05         -0.2250     2.5900     0.0040 cc         1 MI5       0.402500
      6 N06          1.4970    -0.4960    -0.3140 nd         1 MI5      -0.662000
      7 C07          0.8570    -1.6380    -0.0680 cc         1 MI5       0.424300
      8 C08         -0.5380    -1.7430     0.2970 cc         1 MI5      -0.296000
      9 C09         -1.3740    -0.6510     0.3890 cd         1 MI5       0.375000
     10 N10         -2.7010    -0.7970     0.7470 nu         1 MI5      -0.924000
     11 C11          1.5950    -2.9650    -0.1220 c6         1 MI5      -0.155000
     12 C12          2.2550     2.4420    -0.6060 cc         1 MI5      -0.120800
     13 C13          2.6190    -3.0020    -1.2900 c6         1 MI5       0.156800
     14 N14          3.3390    -4.3000    -1.3170 n7         1 MI5      -0.844400
     15 C15          4.0740    -4.5690    -0.0570 c6         1 MI5       0.147800
     16 C16          3.1120    -4.5670     1.1550 c6         1 MI5      -0.114400
     17 C17          2.3100    -3.2440     1.2290 c6         1 MI5      -0.065400
     18 C18          3.4690     1.7890    -0.8960 cc         1 MI5       0.262900
     19 N19          4.4630     2.6180    -1.1470 nd         1 MI5      -0.531800
     20 N20          3.8600     3.8630    -1.0110 na         1 MI5       0.132800
     21 C21          2.5030     3.7780    -0.6790 cd         1 MI5      -0.172000
     22 C22          4.6310     5.0980    -1.2120 c3         1 MI5       0.075900
     23 C23         -3.8510    -0.1220     0.3640 cc         1 MI5       0.155000
     24 S24         -4.0600     1.0240    -0.9810 ss         1 MI5       0.396100
     25 N25         -5.7160     1.2210    -0.7130 nc         1 MI5      -0.546100
     26 C26         -6.0790     0.4660     0.3070 cd         1 MI5       0.337300
     27 C27         -5.0710    -0.3110     0.9340 cd         1 MI5      -0.268000
     28 C28         -7.5220     0.4720     0.7250 c3         1 MI5      -0.126400
     29 H05         -0.3410     3.6660     0.0250 h4         1 MI5       0.048800
     30 H08         -0.9410    -2.7300     0.4920 ha         1 MI5       0.136000
     31 HN10        -2.8780    -1.6340     1.3050 hn         1 MI5       0.493000
     32 H11          0.8780    -3.7780    -0.3020 hc         1 MI5       0.051700
     33 H13          2.0950    -2.8500    -2.2470 h1         1 MI5       0.060200
     34 H13A         3.3490    -2.1850    -1.1810 h1         1 MI5       0.060200
     35 HN14         2.6480    -5.0480    -1.4510 hn         1 MI5       0.402000
     36 H15          4.5830    -5.5430    -0.1240 h1         1 MI5       0.054700
     37 H15A         4.8500    -3.8010     0.0880 h1         1 MI5       0.054700
     38 H16          2.4200    -5.4170     1.0780 hc         1 MI5       0.044700
     39 H16A         3.6820    -4.7120     2.0820 hc         1 MI5       0.044700
     40 H17          2.9900    -2.4150     1.4720 hc         1 MI5       0.057200
     41 H17A         1.5760    -3.2970     2.0450 hc         1 MI5       0.057200
     42 H18          3.6660     0.7270    -0.9350 h4         1 MI5       0.051100
     43 H21          1.8680     4.6440    -0.5330 h4         1 MI5       0.150000
     44 H22          5.0340     5.1170    -2.2310 h1         1 MI5       0.054700
     45 H22A         3.9820     5.9690    -1.0620 h1         1 MI5       0.054700
     46 H22B         5.4580     5.1340    -0.4920 h1         1 MI5       0.054700
     47 H27         -5.2560    -0.9740     1.7700 ha         1 MI5       0.141000
     48 H28         -8.1660     0.1150    -0.0870 hc         1 MI5       0.053033
     49 H28A        -7.6870    -0.1770     1.5930 hc         1 MI5       0.053033
     50 H28B        -7.8470     1.4830     0.9960 hc         1 MI5       0.053033
@<TRIPOS>BOND
     1     1     2 2   
     2     1     5 1   
     3     1    12 1   
     4     2     3 1   
     5     2     6 1   
     6     3     4 1   
     7     3     9 1   
     8     4     5 2   
     9     5    29 1   
    10     6     7 2   
    11     7     8 1   
    12     7    11 1   
    13     8     9 2   
    14     8    30 1   
    15     9    10 1   
    16    10    23 1   
    17    10    31 1   
    18    11    13 1   
    19    11    17 1   
    20    11    32 1   
    21    12    18 1   
    22    12    21 2   
    23    13    14 1   
    24    13    33 1   
    25    13    34 1   
    26    14    15 1   
    27    14    35 1   
    28    15    16 1   
    29    15    36 1   
    30    15    37 1   
    31    16    17 1   
    32    16    38 1   
    33    16    39 1   
    34    17    40 1   
    35    17    41 1   
    36    18    19 2   
    37    18    42 1   
    38    19    20 1   
    39    20    21 1   
    40    20    22 1   
    41    21    43 1   
    42    22    44 1   
    43    22    45 1   
    44    22    46 1   
    45    23    24 1   
    46    23    27 2   
    47    24    25 1   
    48    25    26 2   
    49    26    27 1   
    50    26    28 1   
    51    27    47 1   
    52    28    48 1   
    53    28    49 1   
    54    28    50 1   
@<TRIPOS>SUBSTRUCTURE
     1 MI5         1 TEMP              0 ****  ****    0 ROOT
