@<TRIPOS>MOLECULE
MI8
   84    84     1     0     0
SMALL
abcg2


@<TRIPOS>ATOM
      1 N1          23.9130    24.2490   -26.8520 n8         1 MI8      -1.027200
      2 C2          19.0490    10.0370   -31.7220 c6         1 MI8       0.214500
      3 C4          21.2700    11.7560   -31.1910 c6         1 MI8      -0.147400
      4 C5          17.6070     9.6460   -31.7500 c2         1 MI8      -0.226200
      5 C6          16.7700     9.6100   -30.7190 c2         1 MI8      -0.198200
      6 C27         24.1320    26.8630   -25.4220 c          1 MI8       0.583100
      7 O4          23.6830    27.7650   -26.2880 os         1 MI8      -0.445100
      8 C28         24.6010    28.7590   -26.7390 c3         1 MI8       0.148900
      9 C26         23.0790    25.8390   -25.0940 c3         1 MI8      -0.176400
     10 C25         22.7490    24.9380   -26.2950 c3         1 MI8       0.169500
     11 C24         21.6830    23.9130   -25.9060 c3         1 MI8      -0.113400
     12 C23         21.1960    23.0860   -27.1060 c3         1 MI8       0.226500
     13 O2          22.2150    22.3020   -27.6610 oh         1 MI8      -0.686000
     14 C22         20.0180    22.2480   -26.7210 c2         1 MI8      -0.232200
     15 C21         19.9320    20.9190   -26.8320 ce         1 MI8      -0.153000
     16 C19         18.7440    20.1370   -26.4890 ce         1 MI8      -0.083200
     17 C20         17.5740    20.8660   -25.8880 c3         1 MI8      -0.053900
     18 C17         18.6580    18.8150   -26.7110 c2         1 MI8      -0.205200
     19 C16         19.6640    17.8900   -27.3290 c3         1 MI8      -0.023500
     20 C18         19.2450    17.5580   -28.7620 c3         1 MI8      -0.084100
     21 C15         19.7650    16.6180   -26.4650 c3         1 MI8      -0.041200
     22 C13         20.6890    15.5640   -27.0050 c2         1 MI8      -0.088400
     23 C14         22.1280    15.9640   -27.1220 c3         1 MI8      -0.058900
     24 C12         20.2040    14.3610   -27.3530 ce         1 MI8      -0.197000
     25 C11         20.9450    13.2300   -27.8840 ce         1 MI8      -0.169000
     26 C10         20.3640    12.0920   -28.2800 c2         1 MI8      -0.253200
     27 C9          21.1060    10.8950   -28.8020 c3         1 MI8       0.202700
     28 N           20.8420     9.6810   -28.0330 n8         1 MI8      -0.988200
     29 C3          20.8220    10.6240   -30.2790 c6         1 MI8       0.185300
     30 C           20.8520    11.5050   -32.6380 c6         1 MI8       0.173300
     31 O1          21.5500    10.4160   -33.2110 oh         1 MI8      -0.665000
     32 C1          19.3570    11.1800   -32.7040 c6         1 MI8      -0.083700
     33 O           19.4320    10.3910   -30.4150 os         1 MI8      -0.462000
     34 C7          15.3370     9.1940   -30.8100 c3         1 MI8      -0.059900
     35 H1          24.4980    24.8760   -27.3900 hn         1 MI8       0.416000
     36 H2          24.4910    23.8650   -26.1120 hn         1 MI8       0.416000
     37 H4          19.6300     9.1580   -32.0480 h1         1 MI8       0.056700
     38 H6          20.8400    12.7030   -30.8540 hc         1 MI8       0.055700
     39 H7          17.2470     9.3580   -32.7360 ha         1 MI8       0.170000
     40 H8          17.1220     9.8930   -29.7320 ha         1 MI8       0.179000
     41 H9          17.4560    12.2260   -32.6350 hc         1 MI8       0.037700
     42 H10         18.5960    12.7680   -31.4120 hc         1 MI8       0.037700
     43 H11         18.8170    13.2410   -33.0930 hc         1 MI8       0.037700
     44 H12         24.0530    29.3730   -27.4480 h1         1 MI8       0.050033
     45 H13         24.9510    29.3820   -25.9170 h1         1 MI8       0.050033
     46 H14         25.4600    28.3110   -27.2390 h1         1 MI8       0.050033
     47 H15         22.1690    26.3460   -24.7630 hc         1 MI8       0.080700
     48 H16         23.4410    25.2270   -24.2650 hc         1 MI8       0.080700
     49 H17         22.3360    25.5590   -27.0950 h1         1 MI8       0.072700
     50 H18         20.8290    24.4390   -25.4720 hc         1 MI8       0.053700
     51 H19         22.0740    23.2460   -25.1300 hc         1 MI8       0.053700
     52 H20         20.8200    23.8190   -27.8460 h1         1 MI8       0.026700
     53 H21         23.0280    22.8520   -27.5880 ho         1 MI8       0.486000
     54 H22         19.1750    22.8210   -26.3460 ha         1 MI8       0.164000
     55 H23         20.7860    20.3780   -27.2200 ha         1 MI8       0.192000
     56 H24         16.7560    20.1830   -25.6670 hc         1 MI8       0.038367
     57 H25         17.8510    21.3710   -24.9610 hc         1 MI8       0.038367
     58 H26         17.1920    21.6360   -26.5630 hc         1 MI8       0.038367
     59 H27         17.7200    18.3300   -26.4450 ha         1 MI8       0.163000
     60 H28         20.6470    18.3660   -27.3620 hc         1 MI8       0.058700
     61 H29         19.9610    16.8910   -29.2440 hc         1 MI8       0.036367
     62 H30         18.2710    17.0650   -28.7780 hc         1 MI8       0.036367
     63 H31         19.1740    18.4650   -29.3630 hc         1 MI8       0.036367
     64 H32         20.1030    16.9120   -25.4640 hc         1 MI8       0.046700
     65 H33         18.7620    16.1990   -26.3460 hc         1 MI8       0.046700
     66 H34         22.4710    16.4310   -26.1960 hc         1 MI8       0.042033
     67 H35         22.7940    15.1350   -27.3470 hc         1 MI8       0.042033
     68 H36         22.2600    16.7110   -27.9100 hc         1 MI8       0.042033
     69 H37         19.1350    14.2000   -27.2380 ha         1 MI8       0.169000
     70 H38         22.0250    13.3150   -27.9700 ha         1 MI8       0.167000
     71 H39         19.2840    11.9940   -28.2000 ha         1 MI8       0.180000
     72 H40         22.1810    11.0950   -28.7340 h1         1 MI8       0.059700
     73 H41         21.0540     9.8530   -27.0580 hn         1 MI8       0.400000
     74 H42         19.8510     9.4700   -28.0640 hn         1 MI8       0.400000
     75 H44         21.3700     9.7100   -30.5510 h1         1 MI8       0.057700
     76 H45         21.0380    12.4200   -33.2200 h1         1 MI8       0.035700
     77 H46         22.4930    10.5570   -33.0810 ho         1 MI8       0.443000
     78 H47         19.1360    10.8180   -33.7150 hc         1 MI8       0.065700
     79 H48         14.6720     9.9950   -30.4790 hc         1 MI8       0.038033
     80 H49         15.0570     8.9220   -31.8280 hc         1 MI8       0.038033
     81 H50         15.1340     8.3380   -30.1630 hc         1 MI8       0.038033
     82 H5          22.3560    11.8730   -31.1250 hc         1 MI8       0.055700
     83 C8          18.5110    12.4200   -32.4420 c3         1 MI8      -0.083100
     84 O3          25.2550    26.8670   -24.9840 o          1 MI8      -0.481000
@<TRIPOS>BOND
     1     1    10 1   
     2     1    35 1   
     3     1    36 1   
     4     2     4 1   
     5     2    32 1   
     6     2    33 1   
     7     2    37 1   
     8     3    29 1   
     9     3    30 1   
    10     3    38 1   
    11     3    82 1   
    12     4     5 2   
    13     4    39 1   
    14     5    34 1   
    15     5    40 1   
    16     6     7 1   
    17     6     9 1   
    18     6    84 2   
    19     7     8 1   
    20     8    44 1   
    21     8    45 1   
    22     8    46 1   
    23     9    10 1   
    24     9    47 1   
    25     9    48 1   
    26    10    11 1   
    27    10    49 1   
    28    11    12 1   
    29    11    50 1   
    30    11    51 1   
    31    12    13 1   
    32    12    14 1   
    33    12    52 1   
    34    13    53 1   
    35    14    15 2   
    36    14    54 1   
    37    15    16 1   
    38    15    55 1   
    39    16    17 1   
    40    16    18 2   
    41    17    56 1   
    42    17    57 1   
    43    17    58 1   
    44    18    19 1   
    45    18    59 1   
    46    19    20 1   
    47    19    21 1   
    48    19    60 1   
    49    20    61 1   
    50    20    62 1   
    51    20    63 1   
    52    21    22 1   
    53    21    64 1   
    54    21    65 1   
    55    22    23 1   
    56    22    24 2   
    57    23    66 1   
    58    23    67 1   
    59    23    68 1   
    60    24    25 1   
    61    24    69 1   
    62    25    26 2   
    63    25    70 1   
    64    26    27 1   
    65    26    71 1   
    66    27    28 1   
    67    27    29 1   
    68    27    72 1   
    69    28    73 1   
    70    28    74 1   
    71    29    33 1   
    72    29    75 1   
    73    30    31 1   
    74    30    32 1   
    75    30    76 1   
    76    31    77 1   
    77    32    78 1   
    78    32    83 1   
    79    34    79 1   
    80    34    80 1   
    81    34    81 1   
    82    41    83 1   
    83    42    83 1   
    84    43    83 1   
@<TRIPOS>SUBSTRUCTURE
     1 MI8         1 TEMP              0 ****  ****    0 ROOT
