@<TRIPOS>MOLECULE
MI8
   84    84     1     0     0
SMALL
No Charge or Current Charge


@<TRIPOS>ATOM
      1 N1          22.8910    25.3770   -25.4120 n8         1 MI8      -1.027200
      2 C2          19.3630    10.6950   -32.4960 c6         1 MI8       0.214500
      3 C4          21.2780    12.7940   -31.7880 c6         1 MI8      -0.147400
      4 C5          17.9970    10.0160   -32.5320 c2         1 MI8      -0.226200
      5 C6          17.0210    10.2020   -31.6240 c2         1 MI8      -0.198200
      6 C27         23.6590    25.8390   -28.3710 c          1 MI8       0.583100
      7 O4          24.2020    24.9920   -29.3020 os         1 MI8      -0.445100
      8 C28         25.4540    25.3640   -29.9080 c3         1 MI8       0.148900
      9 C26         22.3380    25.3060   -27.8210 c3         1 MI8      -0.176400
     10 C25         22.5520    24.4800   -26.5360 c3         1 MI8       0.169500
     11 C24         21.3110    23.6240   -26.1730 c3         1 MI8      -0.113400
     12 C23         21.5300    22.6550   -24.9910 c3         1 MI8       0.226500
     13 O2          21.9370    23.4120   -23.8630 oh         1 MI8      -0.686000
     14 C22         20.2800    21.8800   -24.6460 c2         1 MI8      -0.232200
     15 C21         20.0090    20.6120   -25.0360 ce         1 MI8      -0.153000
     16 C19         18.7810    19.8530   -24.7120 ce         1 MI8      -0.083200
     17 C20         17.6740    20.5970   -23.9760 c3         1 MI8      -0.053900
     18 C17         18.6060    18.5550   -25.0650 c2         1 MI8      -0.205200
     19 C16         19.5740    17.6380   -25.8040 c3         1 MI8      -0.023500
     20 C18         19.4830    17.8730   -27.3290 c3         1 MI8      -0.084100
     21 C15         19.3300    16.1520   -25.4250 c3         1 MI8      -0.041200
     22 C13         20.3380    15.1830   -26.0330 c2         1 MI8      -0.088400
     23 C14         21.7200    15.2740   -25.3980 c3         1 MI8      -0.058900
     24 C12         20.0170    14.3550   -27.0550 ce         1 MI8      -0.197000
     25 C11         20.9350    13.4190   -27.7200 ce         1 MI8      -0.169000
     26 C10         20.5500    12.6050   -28.7260 c2         1 MI8      -0.253200
     27 C9          21.4360    11.6280   -29.4640 c3         1 MI8       0.202700
     28 N           21.3630    10.3650   -28.7120 n8         1 MI8      -0.988200
     29 C3          21.1080    11.4680   -30.9960 c6         1 MI8       0.185300
     30 C           20.8350    12.6270   -33.2620 c6         1 MI8       0.173300
     31 O1          21.7800    11.8130   -33.9660 oh         1 MI8      -0.665000
     32 C1          19.4120    12.0000   -33.3510 c6         1 MI8      -0.083700
     33 O           19.7470    10.9830   -31.1340 os         1 MI8      -0.462000
     34 C7          15.6620     9.5380   -31.6550 c3         1 MI8      -0.059900
     35 H1          23.7920    25.8340   -25.6100 hn         1 MI8       0.416000
     36 H2          22.2400    26.1740   -25.4160 hn         1 MI8       0.416000
     37 H4          20.0940     9.9820   -32.9080 h1         1 MI8       0.056700
     38 H6          20.6860    13.5890   -31.3170 hc         1 MI8       0.055700
     39 H7          17.8430     9.3410   -33.3740 ha         1 MI8       0.170000
     40 H8          17.1700    10.8800   -30.7800 ha         1 MI8       0.179000
     41 H9          17.3040    12.6370   -33.1640 hc         1 MI8       0.037700
     42 H10         18.3480    13.2870   -31.8930 hc         1 MI8       0.037700
     43 H11         18.4110    13.9590   -33.5300 hc         1 MI8       0.037700
     44 H12         25.7710    24.6010   -30.6310 h1         1 MI8       0.050033
     45 H13         25.3630    26.3200   -30.4400 h1         1 MI8       0.050033
     46 H14         26.2430    25.4610   -29.1500 h1         1 MI8       0.050033
     47 H15         21.9100    24.6310   -28.5710 hc         1 MI8       0.080700
     48 H16         21.6520    26.1370   -27.6240 hc         1 MI8       0.080700
     49 H17         23.3930    23.7880   -26.7000 h1         1 MI8       0.072700
     50 H18         21.0220    23.0270   -27.0470 hc         1 MI8       0.053700
     51 H19         20.4610    24.2840   -25.9550 hc         1 MI8       0.053700
     52 H20         22.3270    21.9500   -25.2670 h1         1 MI8       0.026700
     53 H21         22.3710    24.2090   -24.2910 ho         1 MI8       0.486000
     54 H22         19.5780    22.4470   -24.0360 ha         1 MI8       0.164000
     55 H23         20.7510    20.0970   -25.6470 ha         1 MI8       0.192000
     56 H24         16.7670    19.9890   -23.8680 hc         1 MI8       0.038367
     57 H25         17.9940    20.8830   -22.9660 hc         1 MI8       0.038367
     58 H26         17.3850    21.5100   -24.5110 hc         1 MI8       0.038367
     59 H27         17.6660    18.0640   -24.8090 ha         1 MI8       0.163000
     60 H28         20.5970    17.8780   -25.4900 hc         1 MI8       0.058700
     61 H29         20.2340    17.2800   -27.8640 hc         1 MI8       0.036367
     62 H30         18.4910    17.5940   -27.7060 hc         1 MI8       0.036367
     63 H31         19.6540    18.9280   -27.5710 hc         1 MI8       0.036367
     64 H32         19.3400    16.0580   -24.3310 hc         1 MI8       0.046700
     65 H33         18.3140    15.8750   -25.7320 hc         1 MI8       0.046700
     66 H34         21.6850    15.7190   -24.3960 hc         1 MI8       0.042033
     67 H35         22.1790    14.2860   -25.2850 hc         1 MI8       0.042033
     68 H36         22.3900    15.8900   -26.0100 hc         1 MI8       0.042033
     69 H37         18.9980    14.3710   -27.4470 ha         1 MI8       0.169000
     70 H38         21.9730    13.4000   -27.3820 ha         1 MI8       0.167000
     71 H39         19.5180    12.6200   -29.0800 ha         1 MI8       0.180000
     72 H40         22.4740    11.9880   -29.3970 h1         1 MI8       0.059700
     73 H41         21.3920    10.5960   -27.7140 hn         1 MI8       0.400000
     74 H42         20.4150     9.9960   -28.8420 hn         1 MI8       0.400000
     75 H44         21.7930    10.7130   -31.4100 h1         1 MI8       0.057700
     76 H45         20.8070    13.6220   -33.7320 h1         1 MI8       0.035700
     77 H46         22.6040    12.3410   -34.0450 ho         1 MI8       0.443000
     78 H47         19.2160    11.7370   -34.3990 hc         1 MI8       0.065700
     79 H48         14.8620    10.2860   -31.7130 hc         1 MI8       0.038033
     80 H49         15.5570     8.8700   -32.5190 hc         1 MI8       0.038033
     81 H50         15.4970     8.9410   -30.7500 hc         1 MI8       0.038033
     82 H5          22.3240    13.1270   -31.7410 hc         1 MI8       0.055700
     83 C8          18.3070    13.0290   -32.9580 c3         1 MI8      -0.083100
     84 O3          24.1680    26.8930   -28.0140 o          1 MI8      -0.481000
@<TRIPOS>BOND
     1     1    10 1   
     2     1    35 1   
     3     1    36 1   
     4     2     4 1   
     5     2    32 1   
     6     2    33 1   
     7     2    37 1   
     8     3    29 1   
     9     3    30 1   
    10     3    38 1   
    11     3    82 1   
    12     4     5 2   
    13     4    39 1   
    14     5    34 1   
    15     5    40 1   
    16     6     7 1   
    17     6     9 1   
    18     6    84 2   
    19     7     8 1   
    20     8    44 1   
    21     8    45 1   
    22     8    46 1   
    23     9    10 1   
    24     9    47 1   
    25     9    48 1   
    26    10    11 1   
    27    10    49 1   
    28    11    12 1   
    29    11    50 1   
    30    11    51 1   
    31    12    13 1   
    32    12    14 1   
    33    12    52 1   
    34    13    53 1   
    35    14    15 2   
    36    14    54 1   
    37    15    16 1   
    38    15    55 1   
    39    16    17 1   
    40    16    18 2   
    41    17    56 1   
    42    17    57 1   
    43    17    58 1   
    44    18    19 1   
    45    18    59 1   
    46    19    20 1   
    47    19    21 1   
    48    19    60 1   
    49    20    61 1   
    50    20    62 1   
    51    20    63 1   
    52    21    22 1   
    53    21    64 1   
    54    21    65 1   
    55    22    23 1   
    56    22    24 2   
    57    23    66 1   
    58    23    67 1   
    59    23    68 1   
    60    24    25 1   
    61    24    69 1   
    62    25    26 2   
    63    25    70 1   
    64    26    27 1   
    65    26    71 1   
    66    27    28 1   
    67    27    29 1   
    68    27    72 1   
    69    28    73 1   
    70    28    74 1   
    71    29    33 1   
    72    29    75 1   
    73    30    31 1   
    74    30    32 1   
    75    30    76 1   
    76    31    77 1   
    77    32    78 1   
    78    32    83 1   
    79    34    79 1   
    80    34    80 1   
    81    34    81 1   
    82    41    83 1   
    83    42    83 1   
    84    43    83 1   
@<TRIPOS>SUBSTRUCTURE
     1 MI8         1 TEMP              0 ****  ****    0 ROOT
