@<TRIPOS>MOLECULE
MIB
   28    29     1     0     0
SMALL
abcg2


@<TRIPOS>ATOM
      1 O1           4.0350    -1.6030    -0.0640 o          1 MIB      -0.543100
      2 CO           3.9380    -0.3880    -0.0310 c          1 MIB       0.576300
      3 CM           5.1520     0.5030    -0.0060 c3         1 MIB      -0.194100
      4 CA           2.6480     0.3080    -0.0150 ce         1 MIB      -0.358200
      5 CB           1.4780    -0.3590    -0.0300 cf         1 MIB      -0.031000
      6 CG           0.1600     0.2050    -0.0130 cd         1 MIB      -0.144200
      7 CD1         -0.1900     1.5410     0.0280 cc         1 MIB      -0.113100
      8 CD2         -1.0810    -0.5220    -0.0340 ca         1 MIB      -0.070800
      9 NE1         -1.5330     1.6790     0.0330 na         1 MIB      -0.077700
     10 CN1         -2.2600     2.9260     0.0820 c3         1 MIB       0.060900
     11 CE2         -2.1130     0.4340    -0.0040 ca         1 MIB      -0.059200
     12 CE3         -1.4160    -1.8780    -0.0740 ca         1 MIB      -0.064000
     13 CZ2         -3.4610     0.0850    -0.0120 ca         1 MIB      -0.120000
     14 CZ3         -2.7510    -2.2350    -0.0830 ca         1 MIB      -0.130000
     15 CH2         -3.7640    -1.2640    -0.0520 ca         1 MIB      -0.096000
     16 HM1          5.1340     1.1370     0.8830 hc         1 MIB       0.056367
     17 HM2          6.0730    -0.0760    -0.0120 hc         1 MIB       0.056367
     18 HM3          5.1440     1.1730    -0.8680 hc         1 MIB       0.056367
     19 HA           2.6720     1.3920     0.0110 ha         1 MIB       0.173000
     20 HB           1.5250    -1.4450    -0.0560 ha         1 MIB       0.191000
     21 HD1          0.4450     2.4130     0.0540 h4         1 MIB       0.214000
     22 HN1         -2.9120     3.0230    -0.7850 h1         1 MIB       0.052367
     23 HN2         -2.8660     2.9810     0.9860 h1         1 MIB       0.052367
     24 HN3         -1.5550     3.7520     0.0820 h1         1 MIB       0.052367
     25 HE3         -0.6480    -2.6420    -0.0980 ha         1 MIB       0.120000
     26 HZ2         -4.2420     0.8330     0.0100 ha         1 MIB       0.114000
     27 HZ3         -3.0230    -3.2820    -0.1130 ha         1 MIB       0.113000
     28 HH2         -4.8000    -1.5750    -0.0600 ha         1 MIB       0.112000
@<TRIPOS>BOND
     1     1     2 2   
     2     2     3 1   
     3     2     4 1   
     4     3    16 1   
     5     3    17 1   
     6     3    18 1   
     7     4     5 2   
     8     4    19 1   
     9     5     6 1   
    10     5    20 1   
    11     6     7 2   
    12     6     8 1   
    13     7     9 1   
    14     7    21 1   
    15     8    11 ar  
    16     8    12 ar  
    17     9    10 1   
    18     9    11 1   
    19    10    22 1   
    20    10    23 1   
    21    10    24 1   
    22    11    13 ar  
    23    12    14 ar  
    24    12    25 1   
    25    13    15 ar  
    26    13    26 1   
    27    14    15 ar  
    28    14    27 1   
    29    15    28 1   
@<TRIPOS>SUBSTRUCTURE
     1 MIB         1 TEMP              0 ****  ****    0 ROOT
