@<TRIPOS>MOLECULE
MIB
   28    29     1     0     0
SMALL
No Charge or Current Charge


@<TRIPOS>ATOM
      1 O1           4.0900    -1.6400    -0.0710 o          1 MIB      -0.543100
      2 CO           3.9870    -0.4210    -0.0340 c          1 MIB       0.576300
      3 CM           5.2180     0.4800    -0.0090 c3         1 MIB      -0.194100
      4 CA           2.6610     0.2560    -0.0120 ce         1 MIB      -0.358200
      5 CB           1.4580    -0.3860    -0.0290 cf         1 MIB      -0.031000
      6 CG           0.1330     0.2370    -0.0090 cd         1 MIB      -0.144200
      7 CD1         -0.1220     1.6040     0.0330 cc         1 MIB      -0.113100
      8 CD2         -1.1200    -0.4910    -0.0300 ca         1 MIB      -0.070800
      9 NE1         -1.5260     1.7110     0.0380 na         1 MIB      -0.077700
     10 CN1         -2.3250     2.9450     0.0770 c3         1 MIB       0.060900
     11 CE2         -2.1100     0.4540     0.0000 ca         1 MIB      -0.059200
     12 CE3         -1.4030    -1.8640    -0.0710 ca         1 MIB      -0.064000
     13 CZ2         -3.4680     0.0940    -0.0090 ca         1 MIB      -0.120000
     14 CZ3         -2.7600    -2.2540    -0.0820 ca         1 MIB      -0.130000
     15 CH2         -3.7870    -1.2800    -0.0510 ca         1 MIB      -0.096000
     16 HM1          5.1560     1.1400     0.8630 hc         1 MIB       0.056367
     17 HM2          6.1580    -0.0830    -0.0280 hc         1 MIB       0.056367
     18 HM3          5.1530     1.1900    -0.8410 hc         1 MIB       0.056367
     19 HA           2.6870     1.3430     0.0200 ha         1 MIB       0.173000
     20 HB           1.4600    -1.4780    -0.0620 ha         1 MIB       0.191000
     21 HD1          0.5390     2.4630     0.0590 h4         1 MIB       0.214000
     22 HN1         -2.9590     3.0010    -0.8170 h1         1 MIB       0.052367
     23 HN2         -2.9570     2.9460     0.9730 h1         1 MIB       0.052367
     24 HN3         -1.6620     3.8180     0.1030 h1         1 MIB       0.052367
     25 HE3         -0.6110    -2.6080    -0.0950 ha         1 MIB       0.120000
     26 HZ2         -4.2540     0.8450     0.0150 ha         1 MIB       0.114000
     27 HZ3         -3.0170    -3.3110    -0.1140 ha         1 MIB       0.113000
     28 HH2         -4.8290    -1.5930    -0.0590 ha         1 MIB       0.112000
@<TRIPOS>BOND
     1     1     2 2   
     2     2     3 1   
     3     2     4 1   
     4     3    16 1   
     5     3    17 1   
     6     3    18 1   
     7     4     5 2   
     8     4    19 1   
     9     5     6 1   
    10     5    20 1   
    11     6     7 2   
    12     6     8 1   
    13     7     9 1   
    14     7    21 1   
    15     8    11 ar  
    16     8    12 ar  
    17     9    10 1   
    18     9    11 1   
    19    10    22 1   
    20    10    23 1   
    21    10    24 1   
    22    11    13 ar  
    23    12    14 ar  
    24    12    25 1   
    25    13    15 ar  
    26    13    26 1   
    27    14    15 ar  
    28    14    27 1   
    29    15    28 1   
@<TRIPOS>SUBSTRUCTURE
     1 MIB         1 TEMP              0 ****  ****    0 ROOT
