@<TRIPOS>MOLECULE
MIC
   21    20     1     0     0
SMALL
bcc


@<TRIPOS>ATOM
      1 C1          -0.0500    -0.4060     2.3580 c          1 MIC       0.924600
      2 O1          -0.4830     0.3440     3.2520 o          1 MIC      -0.877800
      3 O2          -0.2000    -1.6470     2.3040 o          1 MIC      -0.877800
      4 C2           0.7860     0.2280     1.2100 c3         1 MIC       0.056800
      5 CM2          2.2190    -0.2810     1.3550 c3         1 MIC      -0.048100
      6 O7           0.8230     1.6330     1.3070 oh         1 MIC      -0.693800
      7 C3           0.1640    -0.1880    -0.1470 c3         1 MIC      -0.180700
      8 C4           0.9350     0.3660    -1.3530 c3         1 MIC      -0.165400
      9 C5           0.3550    -0.1290    -2.6850 c          1 MIC       0.937600
     10 O3           0.5270    -1.3360    -2.9590 o          1 MIC      -0.890800
     11 O4          -0.2400     0.7030    -3.4020 o          1 MIC      -0.890800
     12 C6          -1.2950     0.2900    -0.2310 c          1 MIC       0.958600
     13 O5          -1.5100     1.4790     0.1440 o          1 MIC      -0.870800
     14 O6          -2.1580    -0.4860    -0.6680 o          1 MIC      -0.870800
     15 HM21         2.2710    -1.3580     1.1970 hc         1 MIC      -0.007967
     16 HM22         2.8920     0.1980     0.6430 hc         1 MIC      -0.007967
     17 HM23         2.6060    -0.0730     2.3570 hc         1 MIC      -0.007967
     18 HO7         -0.0640     1.8880     0.9620 ho         1 MIC       0.466000
     19 H3           0.1830    -1.2760    -0.2080 hc         1 MIC       0.062700
     20 H41          0.9340     1.4570    -1.3190 hc         1 MIC      -0.006800
     21 H42          1.9790     0.0440    -1.2860 hc         1 MIC      -0.006800
@<TRIPOS>BOND
     1     1     2 1   
     2     1     3 1   
     3     1     4 1   
     4     4     5 1   
     5     4     6 1   
     6     4     7 1   
     7     5    15 1   
     8     5    16 1   
     9     5    17 1   
    10     6    18 1   
    11     7     8 1   
    12     7    12 1   
    13     7    19 1   
    14     8     9 1   
    15     8    20 1   
    16     8    21 1   
    17     9    10 1   
    18     9    11 1   
    19    12    13 1   
    20    12    14 1   
@<TRIPOS>SUBSTRUCTURE
     1 MIC         1 TEMP              0 ****  ****    0 ROOT
