@<TRIPOS>MOLECULE
MIC
   21    20     1     0     0
SMALL
No Charge or Current Charge


@<TRIPOS>ATOM
      1 C1          -0.0990    -0.4960     2.3720 c          1 MIC       0.714000
      2 O1          -0.8370     0.1910     3.0720 o          1 MIC      -0.772500
      3 O2           0.0310    -1.6990     2.5680 o          1 MIC      -0.772500
      4 C2           0.7940     0.2100     1.2390 c3         1 MIC       0.080000
      5 CM2          2.2660    -0.2820     1.3770 c3         1 MIC      -0.048100
      6 O7           0.8100     1.6600     1.3440 oh         1 MIC      -0.756000
      7 C3           0.1650    -0.1270    -0.1610 c3         1 MIC      -0.180700
      8 C4           0.9910     0.3540    -1.4090 c3         1 MIC      -0.165400
      9 C5           0.3450    -0.1380    -2.7290 c          1 MIC       0.727000
     10 O3           0.6380    -1.2520    -3.1370 o          1 MIC      -0.785500
     11 O4          -0.4400     0.5980    -3.3070 o          1 MIC      -0.785500
     12 C6          -1.2900     0.4030    -0.2220 c          1 MIC       0.748000
     13 O5          -1.4740     1.6030    -0.0540 o          1 MIC      -0.765500
     14 O6          -2.1980    -0.4030    -0.3600 o          1 MIC      -0.765500
     15 HM21         2.3550    -1.3420     1.1110 hc         1 MIC      -0.007967
     16 HM22         2.9480     0.2870     0.7330 hc         1 MIC      -0.007967
     17 HM23         2.6140    -0.1630     2.4100 hc         1 MIC      -0.007967
     18 HO7         -0.0510     1.9220     0.9120 ho         1 MIC       0.505000
     19 H3           0.1100    -1.2190    -0.2410 hc         1 MIC       0.062700
     20 H41          1.0140     1.4500    -1.3770 hc         1 MIC      -0.006800
     21 H42          1.9810    -0.1060    -1.3100 hc         1 MIC      -0.006800
@<TRIPOS>BOND
     1     1     2 1   
     2     1     3 1   
     3     1     4 1   
     4     4     5 1   
     5     4     6 1   
     6     4     7 1   
     7     5    15 1   
     8     5    16 1   
     9     5    17 1   
    10     6    18 1   
    11     7     8 1   
    12     7    12 1   
    13     7    19 1   
    14     8     9 1   
    15     8    20 1   
    16     8    21 1   
    17     9    10 1   
    18     9    11 1   
    19    12    13 1   
    20    12    14 1   
@<TRIPOS>SUBSTRUCTURE
     1 MIC         1 TEMP              0 ****  ****    0 ROOT
