@<TRIPOS>MOLECULE
MID
   68    71     1     0     0
SMALL
No Charge or Current Charge


@<TRIPOS>ATOM
      1 S           -4.7030     6.0090    26.6150 sy         1 MID       1.162600
      2 O1S         -5.7850     5.2160    26.0300 o          1 MID      -0.534000
      3 O2S         -4.9000     7.3330    27.2090 o          1 MID      -0.534000
      4 C1          -3.7920     3.5750    27.6110 ca         1 MID       0.017000
      5 C2          -3.7240     4.9810    27.7110 ca         1 MID      -0.302500
      6 C3          -2.8330     5.5760    28.6290 ca         1 MID      -0.022000
      7 C4          -2.0130     4.7710    29.4370 ca         1 MID      -0.108000
      8 C5          -1.2330     2.5640    30.1250 ca         1 MID      -0.113000
      9 C6          -1.2850     1.1640    30.0080 ca         1 MID      -0.090000
     10 C7          -2.1750     0.5660    29.1010 ca         1 MID      -0.117000
     11 C8          -3.0160     1.3660    28.3070 ca         1 MID      -0.085000
     12 C9          -2.9650     2.7700    28.4170 ca         1 MID      -0.070000
     13 C10         -2.0710     3.3700    29.3310 ca         1 MID       0.002000
     14 N           -3.5590     6.2000    25.4220 n7         1 MID      -0.864300
     15 CA          -3.9970     6.3930    24.0030 c3         1 MID       0.126800
     16 C           -2.8090     6.3120    23.0060 c          1 MID       0.578100
     17 O           -2.2510     7.2990    22.5450 o          1 MID      -0.593100
     18 N1          -2.3810     5.0240    22.7380 ns         1 MID      -0.496900
     19 CA1         -1.2100     4.6640    21.9000 c3         1 MID       0.033700
     20 CB          -0.3990     3.5050    22.5720 c          1 MID       0.594100
     21 O1          -0.0660     2.5090    21.9360 o          1 MID      -0.608100
     22 CB1         -1.6320     4.3480    20.4380 c3         1 MID      -0.046100
     23 CG          -2.4170     5.4720    19.7710 ca         1 MID      -0.073300
     24 CD1         -3.8210     5.4190    19.7020 ca         1 MID      -0.116500
     25 CD2         -1.7460     6.5810    19.2280 ca         1 MID      -0.116500
     26 CE1         -4.5440     6.4590    19.0940 ca         1 MID      -0.074000
     27 CE2         -2.4660     7.6230    18.6170 ca         1 MID      -0.074000
     28 CZ          -3.8780     7.5690    18.5240 ca         1 MID      -0.140900
     29 CF          -4.6630     8.6890    17.9050 ce         1 MID       0.657800
     30 NG1         -5.9040     8.8660    18.1080 n2         1 MID      -0.824100
     31 NG2         -4.0440     9.4810    17.0030 nv         1 MID      -1.075200
     32 N11         -0.1810     3.5570    23.9730 n          1 MID      -0.394800
     33 C21          0.2370     4.8480    24.6060 c6         1 MID       0.093000
     34 C31          0.0780     4.8750    26.1460 c6         1 MID      -0.098900
     35 C41          0.7610     3.6640    26.8060 c6         1 MID      -0.074400
     36 C51          0.1900     2.3700    26.2020 c6         1 MID      -0.098900
     37 C61          0.3560     2.3450    24.6640 c6         1 MID       0.093000
     38 H3          -2.7610     6.6600    28.7080 ha         1 MID       0.132000
     39 H4          -1.3240     5.2390    30.1350 ha         1 MID       0.119000
     40 H5          -0.5400     3.0200    30.8280 ha         1 MID       0.119000
     41 H6          -0.6350     0.5430    30.6210 ha         1 MID       0.116000
     42 H7          -2.2140    -0.5170    29.0110 ha         1 MID       0.117000
     43 H8          -3.6990     0.8940    27.6050 ha         1 MID       0.118000
     44 H           -3.0300     5.3360    25.5310 hn         1 MID       0.512000
     45 HA2         -4.7210     5.6260    23.6950 h1         1 MID       0.081200
     46 HA3         -4.4790     7.3710    23.8690 h1         1 MID       0.081200
     47 H2          -2.9100     4.2700    23.1630 hn         1 MID       0.318500
     48 HA          -0.5290     5.5240    21.8730 h1         1 MID       0.093700
     49 HB2         -0.7320     4.1320    19.8480 hc         1 MID       0.070700
     50 HB3         -2.2240     3.4250    20.4310 hc         1 MID       0.070700
     51 HD1         -4.3560     4.5730    20.1270 ha         1 MID       0.111500
     52 HD2         -0.6620     6.6430    19.2870 ha         1 MID       0.111500
     53 HE1         -5.6290     6.3950    19.0580 ha         1 MID       0.128500
     54 HE2         -1.9150     8.4770    18.2300 ha         1 MID       0.128500
     55 HG1         -6.1540     9.7920    17.7460 hn         1 MID       0.372400
     56 HG21        -3.1680     9.1160    16.6480 hn         1 MID       0.460500
     57 HG22        -4.6380     9.9180    16.3090 hn         1 MID       0.460500
     58 H21          1.2940     5.0220    24.3600 h1         1 MID       0.059700
     59 H22         -0.3250     5.6910    24.1870 h1         1 MID       0.059700
     60 H31          0.4960     5.8080    26.5470 hc         1 MID       0.051450
     61 H32         -0.9880     4.8760    26.4040 hc         1 MID       0.051450
     62 H41          1.8470     3.7090    26.6460 hc         1 MID       0.042200
     63 H42          0.5960     3.6810    27.8920 hc         1 MID       0.042200
     64 H51          0.6850     1.4960    26.6460 hc         1 MID       0.051450
     65 H52         -0.8760     2.2840    26.4520 hc         1 MID       0.051450
     66 H61         -0.1460     1.4480    24.2750 h1         1 MID       0.059700
     67 H62          1.4240     2.2480    24.4210 h1         1 MID       0.059700
     68 H1          -4.4700     3.1050    26.9000 ha         1 MID       0.138000
@<TRIPOS>BOND
     1     1     2 2   
     2     1     3 2   
     3     1     5 1   
     4     1    14 1   
     5     4     5 ar  
     6     4    12 ar  
     7     4    68 1   
     8     5     6 ar  
     9     6     7 ar  
    10     6    38 1   
    11     7    13 ar  
    12     7    39 1   
    13     8     9 ar  
    14     8    13 ar  
    15     8    40 1   
    16     9    10 ar  
    17     9    41 1   
    18    10    11 ar  
    19    10    42 1   
    20    11    12 ar  
    21    11    43 1   
    22    12    13 ar  
    23    14    15 1   
    24    14    44 1   
    25    15    16 1   
    26    15    45 1   
    27    15    46 1   
    28    16    17 2   
    29    16    18 1   
    30    18    19 1   
    31    18    47 1   
    32    19    20 1   
    33    19    22 1   
    34    19    48 1   
    35    20    21 2   
    36    20    32 1   
    37    22    23 1   
    38    22    49 1   
    39    22    50 1   
    40    23    24 ar  
    41    23    25 ar  
    42    24    26 ar  
    43    24    51 1   
    44    25    27 ar  
    45    25    52 1   
    46    26    28 ar  
    47    26    53 1   
    48    27    28 ar  
    49    27    54 1   
    50    28    29 1   
    51    29    30 2   
    52    29    31 1   
    53    30    55 1   
    54    31    56 1   
    55    31    57 1   
    56    32    33 1   
    57    32    37 1   
    58    33    34 1   
    59    33    58 1   
    60    33    59 1   
    61    34    35 1   
    62    34    60 1   
    63    34    61 1   
    64    35    36 1   
    65    35    62 1   
    66    35    63 1   
    67    36    37 1   
    68    36    64 1   
    69    36    65 1   
    70    37    66 1   
    71    37    67 1   
@<TRIPOS>SUBSTRUCTURE
     1 MID         1 TEMP              0 ****  ****    0 ROOT
