@<TRIPOS>MOLECULE
MID
   68    71     1     0     0
SMALL
abcg2


@<TRIPOS>ATOM
      1 S           -5.8100     5.4550    25.7080 sy         1 MID       1.162600
      2 O1S         -6.4810     4.1710    25.8110 o          1 MID      -0.534000
      3 O2S         -6.5290     6.6800    26.0090 o          1 MID      -0.534000
      4 C1          -4.0190     4.2230    27.3450 ca         1 MID       0.017000
      5 C2          -4.3700     5.3960    26.7380 ca         1 MID      -0.302500
      6 C3          -3.6170     6.5780    26.9160 ca         1 MID      -0.022000
      7 C4          -2.5100     6.5480    27.7130 ca         1 MID      -0.108000
      8 C5          -0.9570     5.2990    29.1770 ca         1 MID      -0.113000
      9 C6          -0.5880     4.1250    29.7780 ca         1 MID      -0.090000
     10 C7          -1.3550     2.9560    29.5950 ca         1 MID      -0.117000
     11 C8          -2.4760     2.9810    28.8120 ca         1 MID      -0.085000
     12 C9          -2.8760     4.1770    28.1750 ca         1 MID      -0.070000
     13 C10         -2.1080     5.3550    28.3600 ca         1 MID       0.002000
     14 N           -5.3030     5.6080    24.1530 n7         1 MID      -0.864300
     15 CA          -4.5570     4.5510    23.5140 c3         1 MID       0.126800
     16 C           -3.0820     4.8940    23.3290 c          1 MID       0.578100
     17 O           -2.6040     5.9350    23.7380 o          1 MID      -0.593100
     18 N1          -2.3940     3.9450    22.6640 ns         1 MID      -0.496900
     19 CA1         -1.0740     4.1390    22.1010 c3         1 MID       0.033700
     20 CB          -0.2480     2.8750    22.3720 c          1 MID       0.594100
     21 O1          -0.2000     2.0020    21.5150 o          1 MID      -0.608100
     22 CB1         -1.1530     4.4310    20.5950 c3         1 MID      -0.046100
     23 CG          -1.9520     5.6750    20.3450 ca         1 MID      -0.073300
     24 CD1         -3.3210     5.6110    20.0940 ca         1 MID      -0.116500
     25 CD2         -1.3580     6.9310    20.4250 ca         1 MID      -0.116500
     26 CE1         -4.0750     6.7630    19.9480 ca         1 MID      -0.074000
     27 CE2         -2.1060     8.0880    20.2680 ca         1 MID      -0.074000
     28 CZ          -3.4780     8.0190    20.0320 ca         1 MID      -0.140900
     29 CF          -4.3120     9.2430    19.8830 ce         1 MID       0.657800
     30 NG1         -5.5510     9.1810    20.1920 n2         1 MID      -0.824100
     31 NG2         -3.6420    10.3590    19.4680 nv         1 MID      -1.075200
     32 N11          0.3850     2.7710    23.5550 n          1 MID      -0.394800
     33 C21          0.2450     3.6710    24.6910 c6         1 MID       0.093000
     34 C31         -0.5050     2.9930    25.8300 c6         1 MID      -0.098900
     35 C41          0.1480     1.6710    26.2160 c6         1 MID      -0.074400
     36 C51          0.3530     0.7860    24.9920 c6         1 MID      -0.098900
     37 C61          1.0940     1.5450    23.8970 c6         1 MID       0.093000
     38 H3          -3.9120     7.4980    26.4300 ha         1 MID       0.132000
     39 H4          -1.9250     7.4480    27.8560 ha         1 MID       0.119000
     40 H5          -0.3690     6.1970    29.3190 ha         1 MID       0.119000
     41 H6           0.2970     4.0910    30.3990 ha         1 MID       0.116000
     42 H7          -1.0490     2.0360    30.0760 ha         1 MID       0.117000
     43 H8          -3.0640     2.0840    28.6630 ha         1 MID       0.118000
     44 H           -5.0040     6.5490    23.9180 hn         1 MID       0.512000
     45 HA2         -4.6480     3.6220    24.0810 h1         1 MID       0.081200
     46 HA3         -4.9930     4.3450    22.5330 h1         1 MID       0.081200
     47 H2          -2.9130     3.1540    22.3080 hn         1 MID       0.318500
     48 HA          -0.6310     5.0080    22.5840 h1         1 MID       0.093700
     49 HB2         -0.1380     4.5480    20.2090 hc         1 MID       0.070700
     50 HB3         -1.6000     3.5800    20.0780 hc         1 MID       0.070700
     51 HD1         -3.8070     4.6460    20.0090 ha         1 MID       0.111500
     52 HD2         -0.2950     7.0100    20.6220 ha         1 MID       0.111500
     53 HE1         -5.1380     6.6910    19.7590 ha         1 MID       0.128500
     54 HE2         -1.6090     9.0460    20.3570 ha         1 MID       0.128500
     55 HG1         -6.0180    10.0660    20.0160 hn         1 MID       0.372400
     56 HG21        -2.8300    10.2400    18.8840 hn         1 MID       0.460500
     57 HG22        -4.1960    11.1650    19.2240 hn         1 MID       0.460500
     58 H21          1.2500     3.9470    25.0250 h1         1 MID       0.059700
     59 H22         -0.2560     4.5910    24.4090 h1         1 MID       0.059700
     60 H31         -0.5290     3.6710    26.6850 hc         1 MID       0.051450
     61 H32         -1.5430     2.8270    25.5260 hc         1 MID       0.051450
     62 H41          1.1190     1.8730    26.6800 hc         1 MID       0.042200
     63 H42         -0.4560     1.1580    26.9660 hc         1 MID       0.042200
     64 H51          0.9210    -0.1090    25.2550 hc         1 MID       0.051450
     65 H52         -0.6130     0.4490    24.6040 hc         1 MID       0.051450
     66 H61          1.2180     0.9360    23.0060 h1         1 MID       0.059700
     67 H62          2.0930     1.8220    24.2490 h1         1 MID       0.059700
     68 H1          -4.6010     3.3210    27.2060 ha         1 MID       0.138000
@<TRIPOS>BOND
     1     1     2 2   
     2     1     3 2   
     3     1     5 1   
     4     1    14 1   
     5     4     5 ar  
     6     4    12 ar  
     7     4    68 1   
     8     5     6 ar  
     9     6     7 ar  
    10     6    38 1   
    11     7    13 ar  
    12     7    39 1   
    13     8     9 ar  
    14     8    13 ar  
    15     8    40 1   
    16     9    10 ar  
    17     9    41 1   
    18    10    11 ar  
    19    10    42 1   
    20    11    12 ar  
    21    11    43 1   
    22    12    13 ar  
    23    14    15 1   
    24    14    44 1   
    25    15    16 1   
    26    15    45 1   
    27    15    46 1   
    28    16    17 2   
    29    16    18 1   
    30    18    19 1   
    31    18    47 1   
    32    19    20 1   
    33    19    22 1   
    34    19    48 1   
    35    20    21 2   
    36    20    32 1   
    37    22    23 1   
    38    22    49 1   
    39    22    50 1   
    40    23    24 ar  
    41    23    25 ar  
    42    24    26 ar  
    43    24    51 1   
    44    25    27 ar  
    45    25    52 1   
    46    26    28 ar  
    47    26    53 1   
    48    27    28 ar  
    49    27    54 1   
    50    28    29 1   
    51    29    30 2   
    52    29    31 1   
    53    30    55 1   
    54    31    56 1   
    55    31    57 1   
    56    32    33 1   
    57    32    37 1   
    58    33    34 1   
    59    33    58 1   
    60    33    59 1   
    61    34    35 1   
    62    34    60 1   
    63    34    61 1   
    64    35    36 1   
    65    35    62 1   
    66    35    63 1   
    67    36    37 1   
    68    36    64 1   
    69    36    65 1   
    70    37    66 1   
    71    37    67 1   
@<TRIPOS>SUBSTRUCTURE
     1 MID         1 TEMP              0 ****  ****    0 ROOT
