@<TRIPOS>MOLECULE
MIE
    9     8     1     0     0
SMALL
abcg2


@<TRIPOS>ATOM
      1 C12         20.7310    31.8200    67.5110 c          1 MIE       0.451100
      2 C13         21.1850    32.1610    66.0810 c          1 MIE       0.460900
      3 C25         21.8260    31.6980    68.5140 c3         1 MIE      -0.199100
      4 O1          20.3910    32.2790    65.1910 o          1 MIE      -0.452100
      5 H3          22.2700    32.2860    65.9300 h4         1 MIE      -0.000800
      6 H5          21.4470    31.4530    69.5030 hc         1 MIE       0.066700
      7 H6          22.5380    30.9310    68.1970 hc         1 MIE       0.066700
      8 H7          22.3890    32.6340    68.5620 hc         1 MIE       0.066700
      9 O2          19.5560    31.6770    67.7300 o          1 MIE      -0.460100
@<TRIPOS>BOND
     1     1     2 1   
     2     1     3 1   
     3     1     9 2   
     4     2     4 2   
     5     2     5 1   
     6     3     6 1   
     7     3     7 1   
     8     3     8 1   
@<TRIPOS>SUBSTRUCTURE
     1 MIE         1 TEMP              0 ****  ****    0 ROOT
