@<TRIPOS>MOLECULE
MIE
    9     8     1     0     0
SMALL
No Charge or Current Charge


@<TRIPOS>ATOM
      1 C12         20.7190    31.8190    67.5040 c          1 MIE       0.451100
      2 C13         21.1790    32.1700    66.0360 c          1 MIE       0.460900
      3 C25         21.8240    31.6890    68.5590 c3         1 MIE      -0.199100
      4 O1          20.3960    32.3040    65.0950 o          1 MIE      -0.452100
      5 H3          22.2730    32.2950    65.8850 h4         1 MIE      -0.000800
      6 H5          21.4350    31.4450    69.5540 hc         1 MIE       0.066700
      7 H6          22.5570    30.9500    68.2170 hc         1 MIE       0.066700
      8 H7          22.4150    32.6120    68.5700 hc         1 MIE       0.066700
      9 O2          19.5360    31.6560    67.7980 o          1 MIE      -0.460100
@<TRIPOS>BOND
     1     1     2 1   
     2     1     3 1   
     3     1     9 2   
     4     2     4 2   
     5     2     5 1   
     6     3     6 1   
     7     3     7 1   
     8     3     8 1   
@<TRIPOS>SUBSTRUCTURE
     1 MIE         1 TEMP              0 ****  ****    0 ROOT
