@<TRIPOS>MOLECULE
MIF
   29    30     1     0     0
SMALL
No Charge or Current Charge


@<TRIPOS>ATOM
      1 C2          -0.0440    -1.3250    -0.5320 c6         1 MIF       0.173300
      2 O2          -0.9360    -2.4030    -0.1890 oh         1 MIF      -0.709000
      3 C3           1.3310    -1.5640     0.1500 c6         1 MIF       0.129300
      4 O3           1.8580    -2.8510    -0.2230 oh         1 MIF      -0.668000
      5 C4           2.3210    -0.4440    -0.2610 c6         1 MIF       0.112300
      6 C1          -0.6210     0.0810    -0.1570 c5         1 MIF       0.247000
      7 O4           3.6010    -0.6780     0.3660 oh         1 MIF      -0.715000
      8 C5           1.7290     0.9510     0.1170 c6         1 MIF       0.134300
      9 C6           2.6000     2.1450    -0.3960 c3         1 MIF       0.171600
     10 O6           2.0430     3.4320    -0.0680 oh         1 MIF      -0.700000
     11 O5           0.3810     1.1180    -0.4140 os         1 MIF      -0.411000
     12 C8          -3.1670     0.3390     0.1710 c2         1 MIF       0.543800
     13 S1          -2.0960     0.5350    -1.2170 ss         1 MIF      -0.304200
     14 N1          -2.4700     0.1910     1.3280 ns         1 MIF      -0.421400
     15 C7          -1.1120     0.1370     1.3400 c          1 MIF       0.572000
     16 O7          -0.4560     0.1890     2.3720 o          1 MIF      -0.503000
     17 H1          -2.9640     0.2260     2.2060 hn         1 MIF       0.357500
     18 H21         -4.7090     0.5960    -0.8550 hn         1 MIF       0.421400
     19 H2           0.1230    -1.3270    -1.6210 h1         1 MIF       0.063700
     20 H5           1.6870     1.0270     1.2130 h1         1 MIF       0.091700
     21 H61C         3.6040     2.0550     0.0410 h1         1 MIF       0.026200
     22 H62C         2.7070     2.0480    -1.4850 h1         1 MIF       0.026200
     23 H4           2.4340    -0.4770    -1.3560 h1         1 MIF       0.051700
     24 H6           2.6180     4.1110    -0.4930 ho         1 MIF       0.505000
     25 HA           4.2960    -0.2630    -0.1990 ho         1 MIF       0.511000
     26 H3           1.2000    -1.5200     1.2420 h1         1 MIF       0.082700
     27 HB           2.8180    -2.8040    -0.0050 ho         1 MIF       0.466000
     28 HC          -0.3720    -3.2150    -0.2270 ho         1 MIF       0.533000
     29 N2          -4.4330     0.4400     0.1260 n2         1 MIF      -0.788100
@<TRIPOS>BOND
     1     1     2 1   
     2     1     3 1   
     3     1     6 1   
     4     1    19 1   
     5     2    28 1   
     6     3     4 1   
     7     3     5 1   
     8     3    26 1   
     9     4    27 1   
    10     5     7 1   
    11     5     8 1   
    12     5    23 1   
    13     6    11 1   
    14     6    13 1   
    15     6    15 1   
    16     7    25 1   
    17     8     9 1   
    18     8    11 1   
    19     8    20 1   
    20     9    10 1   
    21     9    21 1   
    22     9    22 1   
    23    10    24 1   
    24    12    13 1   
    25    12    14 1   
    26    12    29 2   
    27    14    15 1   
    28    14    17 1   
    29    15    16 2   
    30    18    29 1   
@<TRIPOS>SUBSTRUCTURE
     1 MIF         1 TEMP              0 ****  ****    0 ROOT
