@<TRIPOS>MOLECULE
MIF
   29    30     1     0     0
SMALL
bcc


@<TRIPOS>ATOM
      1 C2           0.0650    -1.3850    -0.4620 c6         1 MIF       0.150100
      2 O2          -0.8590    -2.3160     0.0220 oh         1 MIF      -0.586800
      3 C3           1.4540    -1.5480     0.1400 c6         1 MIF       0.106100
      4 O3           1.9410    -2.7820    -0.3300 oh         1 MIF      -0.605800
      5 C4           2.3360    -0.3860    -0.2960 c6         1 MIF       0.089100
      6 C1          -0.5270    -0.0060    -0.1600 c5         1 MIF       0.175900
      7 O4           3.5900    -0.5430     0.3250 oh         1 MIF      -0.592800
      8 C5           1.6880     0.9380     0.1160 c6         1 MIF       0.111100
      9 C6           2.4430     2.1290    -0.4320 c3         1 MIF       0.148400
     10 O6           1.8820     3.3080     0.0900 oh         1 MIF      -0.577800
     11 O5           0.3600     1.0360    -0.4050 os         1 MIF      -0.364600
     12 C8          -3.0940     0.4680     0.0970 c2         1 MIF       0.543800
     13 S1          -1.9660     0.2780    -1.2460 ss         1 MIF      -0.256300
     14 N1          -2.4170     0.3180     1.2900 ns         1 MIF      -0.488400
     15 C7          -1.0880     0.0640     1.2760 c          1 MIF       0.714500
     16 O7          -0.4000    -0.0550     2.2630 o          1 MIF      -0.578500
     17 H1          -2.9200     0.4220     2.1620 hn         1 MIF       0.357500
     18 H21         -4.6760     0.7970    -0.8930 hn         1 MIF       0.421400
     19 H2           0.1800    -1.4610    -1.5550 h1         1 MIF       0.063700
     20 H5           1.6770     1.0010     1.2110 h1         1 MIF       0.091700
     21 H61C         3.4960     2.0230    -0.1460 h1         1 MIF       0.026200
     22 H62C         2.4020     2.1040    -1.5300 h1         1 MIF       0.026200
     23 H4           2.4290    -0.4130    -1.3910 h1         1 MIF       0.051700
     24 H6           2.4280     4.0470    -0.1920 ho         1 MIF       0.406000
     25 HA           4.2780    -0.2400    -0.2740 ho         1 MIF       0.412000
     26 H3           1.3880    -1.5490     1.2350 h1         1 MIF       0.082700
     27 HB           2.7390    -3.0010     0.1620 ho         1 MIF       0.427000
     28 HC          -0.5280    -3.2030    -0.1590 ho         1 MIF       0.434000
     29 N2          -4.3280     0.7020     0.0540 n2         1 MIF      -0.788100
@<TRIPOS>BOND
     1     1     2 1   
     2     1     3 1   
     3     1     6 1   
     4     1    19 1   
     5     2    28 1   
     6     3     4 1   
     7     3     5 1   
     8     3    26 1   
     9     4    27 1   
    10     5     7 1   
    11     5     8 1   
    12     5    23 1   
    13     6    11 1   
    14     6    13 1   
    15     6    15 1   
    16     7    25 1   
    17     8     9 1   
    18     8    11 1   
    19     8    20 1   
    20     9    10 1   
    21     9    21 1   
    22     9    22 1   
    23    10    24 1   
    24    12    13 1   
    25    12    14 1   
    26    12    29 2   
    27    14    15 1   
    28    14    17 1   
    29    15    16 2   
    30    18    29 1   
@<TRIPOS>SUBSTRUCTURE
     1 MIF         1 TEMP              0 ****  ****    0 ROOT
