@<TRIPOS>MOLECULE
MIG
   31    31     1     0     0
SMALL
No Charge or Current Charge


@<TRIPOS>ATOM
      1 OAA          2.5480     0.9070     1.7640 oh         1 MIG      -0.642000
      2 OAC         -2.9390     1.8330     0.1900 oh         1 MIG      -0.726000
      3 OAD         -3.3030    -0.9820     0.2330 oh         1 MIG      -0.672000
      4 OAE         -1.0540    -2.6510     0.3960 oh         1 MIG      -0.722000
      5 CAF          2.4270     1.9050     0.7370 c3         1 MIG       0.129600
      6 CAG          1.5460    -1.7570    -0.8220 c3         1 MIG       0.158600
      7 CAH          1.9240     1.3360    -0.6350 c3         1 MIG       0.195800
      8 CAI         -0.4950     1.5440    -0.1360 c6         1 MIG       0.150800
      9 CAJ         -1.9190     0.9590    -0.3420 c6         1 MIG       0.133300
     10 CAK         -1.9830    -0.4180     0.3590 c6         1 MIG       0.139300
     11 CAL         -0.9190    -1.3680    -0.2490 c6         1 MIG       0.171300
     12 CAM          0.5320    -0.7630    -0.1200 c6         1 MIG       0.208500
     13 NAN          0.5830     0.6580    -0.6750 n3         1 MIG      -0.757600
     14 HOAA         2.9050     1.3560     2.5610 ho         1 MIG       0.436000
     15 HOAB         3.4230    -2.3430    -0.8450 ho         1 MIG       0.438000
     16 HOAC        -2.9070     2.6690    -0.3330 ho         1 MIG       0.508000
     17 HOAD        -3.9050    -0.2040     0.3040 ho         1 MIG       0.462000
     18 HOAE        -2.0280    -2.7380     0.5430 ho         1 MIG       0.522000
     19 HAF          1.7420     2.6970     1.0680 h1         1 MIG       0.014200
     20 HAFA         3.4020     2.3800     0.5700 h1         1 MIG       0.014200
     21 HAG          1.5110    -1.5710    -1.9040 h1         1 MIG       0.032200
     22 HAGA         1.1950    -2.7860    -0.6740 h1         1 MIG       0.032200
     23 HAH          1.8870     2.1950    -1.3190 h1         1 MIG       0.058700
     24 HAHA         2.7060     0.6900    -1.0490 h1         1 MIG       0.058700
     25 HAI         -0.4480     2.5270    -0.6280 h1         1 MIG       0.038200
     26 HAIA        -0.3430     1.7150     0.9400 h1         1 MIG       0.038200
     27 HAJ         -2.0770     0.8110    -1.4220 h1         1 MIG       0.055700
     28 HAK         -1.7450    -0.2680     1.4240 h1         1 MIG       0.053700
     29 HAL         -1.1400    -1.4740    -1.3220 h1         1 MIG       0.048700
     30 HAM          0.7750    -0.7550     0.9520 h1         1 MIG       0.071700
     31 OAB          2.9030    -1.6770    -0.3450 oh         1 MIG      -0.651000
@<TRIPOS>BOND
     1     1     5 1   
     2     1    14 1   
     3     2     9 1   
     4     2    16 1   
     5     3    10 1   
     6     3    17 1   
     7     4    11 1   
     8     4    18 1   
     9     5     7 1   
    10     5    19 1   
    11     5    20 1   
    12     6    12 1   
    13     6    21 1   
    14     6    22 1   
    15     6    31 1   
    16     7    13 1   
    17     7    23 1   
    18     7    24 1   
    19     8     9 1   
    20     8    13 1   
    21     8    25 1   
    22     8    26 1   
    23     9    10 1   
    24     9    27 1   
    25    10    11 1   
    26    10    28 1   
    27    11    12 1   
    28    11    29 1   
    29    12    13 1   
    30    12    30 1   
    31    15    31 1   
@<TRIPOS>SUBSTRUCTURE
     1 MIG         1 TEMP              0 ****  ****    0 ROOT
