@<TRIPOS>MOLECULE
MIG
   31    31     1     0     0
SMALL
abcg2


@<TRIPOS>ATOM
      1 OAA          2.5940     0.9890     1.6150 oh         1 MIG      -0.642000
      2 OAC         -2.8150     1.8380     0.2960 oh         1 MIG      -0.726000
      3 OAD         -3.2410    -0.9550    -0.0770 oh         1 MIG      -0.672000
      4 OAE         -1.0100    -2.5660     0.3440 oh         1 MIG      -0.722000
      5 CAF          2.4470     1.9090     0.5590 c3         1 MIG       0.129600
      6 CAG          1.4870    -1.6900    -0.7230 c3         1 MIG       0.158600
      7 CAH          1.8630     1.2420    -0.6780 c3         1 MIG       0.195800
      8 CAI         -0.4210     1.4910     0.0420 c6         1 MIG       0.150800
      9 CAJ         -1.8270     1.0190    -0.2910 c6         1 MIG       0.133300
     10 CAK         -1.9980    -0.3790     0.2630 c6         1 MIG       0.139300
     11 CAL         -0.9160    -1.3030    -0.2760 c6         1 MIG       0.171300
     12 CAM          0.4990    -0.7540    -0.0270 c6         1 MIG       0.208500
     13 NAN          0.5610     0.6080    -0.5470 n3         1 MIG      -0.757600
     14 HOAA         2.7670     1.4890     2.4170 ho         1 MIG       0.436000
     15 HOAB         3.3250    -2.2640    -0.5780 ho         1 MIG       0.438000
     16 HOAC        -2.8370     2.6750    -0.1770 ho         1 MIG       0.508000
     17 HOAD        -3.9350    -0.4800     0.3910 ho         1 MIG       0.462000
     18 HOAE        -1.9030    -2.8960     0.2010 ho         1 MIG       0.522000
     19 HAF          1.8070     2.7500     0.8570 h1         1 MIG       0.014200
     20 HAFA         3.4100     2.3510     0.2650 h1         1 MIG       0.014200
     21 HAG          1.5220    -1.4190    -1.7880 h1         1 MIG       0.032200
     22 HAGA         1.0980    -2.7120    -0.6700 h1         1 MIG       0.032200
     23 HAH          1.7700     2.0350    -1.4290 h1         1 MIG       0.058700
     24 HAHA         2.5760     0.5290    -1.0850 h1         1 MIG       0.058700
     25 HAI         -0.2750     2.4960    -0.3660 h1         1 MIG       0.038200
     26 HAIA        -0.3220     1.5770     1.1370 h1         1 MIG       0.038200
     27 HAJ         -1.9360     0.9880    -1.3850 h1         1 MIG       0.055700
     28 HAK         -1.8820    -0.3260     1.3590 h1         1 MIG       0.053700
     29 HAL         -1.0530    -1.3910    -1.3670 h1         1 MIG       0.048700
     30 HAM          0.6830    -0.7950     1.0580 h1         1 MIG       0.071700
     31 OAB          2.7640    -1.6300    -0.1220 oh         1 MIG      -0.651000
@<TRIPOS>BOND
     1     1     5 1   
     2     1    14 1   
     3     2     9 1   
     4     2    16 1   
     5     3    10 1   
     6     3    17 1   
     7     4    11 1   
     8     4    18 1   
     9     5     7 1   
    10     5    19 1   
    11     5    20 1   
    12     6    12 1   
    13     6    21 1   
    14     6    22 1   
    15     6    31 1   
    16     7    13 1   
    17     7    23 1   
    18     7    24 1   
    19     8     9 1   
    20     8    13 1   
    21     8    25 1   
    22     8    26 1   
    23     9    10 1   
    24     9    27 1   
    25    10    11 1   
    26    10    28 1   
    27    11    12 1   
    28    11    29 1   
    29    12    13 1   
    30    12    30 1   
    31    15    31 1   
@<TRIPOS>SUBSTRUCTURE
     1 MIG         1 TEMP              0 ****  ****    0 ROOT
