@<TRIPOS>MOLECULE
MIH
   52    56     1     0     0
SMALL
abcg2


@<TRIPOS>ATOM
      1 CAA         -5.9280     1.2430     0.4520 ca         1 MIH       0.211000
      2 CAB         -5.3780     0.5160     1.4900 ca         1 MIH      -0.170000
      3 CAC         -4.0450     0.1460     1.3970 ca         1 MIH      -0.041000
      4 CAD         -3.2660     0.4960     0.2970 cp         1 MIH      -0.117000
      5 CAE         -3.8800     1.2180    -0.7160 ca         1 MIH       0.215000
      6 CAF         -5.2030     1.6070    -0.6660 ca         1 MIH      -0.202000
      7 FAG         -7.2120     1.6100     0.5220 f          1 MIH      -0.166000
      8 FAH         -3.1630     1.5410    -1.7980 f          1 MIH      -0.163000
      9 CAI         -1.8570     0.0690     0.1910 cp         1 MIH       0.034000
     10 CAJ         -0.7940     1.0060     0.1650 ca         1 MIH      -0.099000
     11 CAK          0.5170     0.5040     0.0530 ca         1 MIH       0.324000
     12 NAL          0.8020    -0.8100    -0.0220 nb         1 MIH      -0.656000
     13 CAM         -0.1840    -1.6690     0.0260 ca         1 MIH       0.398300
     14 CAN         -1.5370    -1.2600     0.1360 ca         1 MIH      -0.149000
     15 CAO         -0.9440     2.4040     0.2660 ca         1 MIH      -0.050000
     16 CAP          0.1370     3.2190     0.2350 ca         1 MIH      -0.151300
     17 NAQ          1.4160     2.7220     0.1040 na         1 MIH       0.492300
     18 CAR          1.6080     1.4000     0.0260 cp         1 MIH      -0.150000
     19 CAS          2.9940     0.9220    -0.0900 cp         1 MIH       0.007000
     20 CAT          3.6740     0.4050     1.0070 ca         1 MIH       0.164500
     21 CAU          4.9710    -0.0710     0.9060 ca         1 MIH      -0.110000
     22 CAV          5.6070    -0.0320    -0.3240 ca         1 MIH      -0.084000
     23 CAW          4.9600     0.4770    -1.4400 ca         1 MIH      -0.110000
     24 CAX          3.6650     0.9480    -1.3080 ca         1 MIH       0.164500
     25 CLAY         2.8470     1.5790    -2.6920 cl         1 MIH      -0.188500
     26 CLAZ         2.8780     0.3620     2.5390 cl         1 MIH      -0.188500
     27 OBA          2.3850     3.5310     0.0710 o          1 MIH      -0.487000
     28 CBB          0.1570    -3.1290    -0.0600 c6         1 MIH      -0.126000
     29 CBC         -0.3540    -3.9190     1.1500 c6         1 MIH      -0.069400
     30 CBD         -0.0040    -5.3920     1.0000 c6         1 MIH       0.159800
     31 NBE         -0.5670    -5.9120    -0.2320 n7         1 MIH      -0.865400
     32 CBF         -0.0210    -5.2420    -1.3980 c6         1 MIH       0.159800
     33 CBG         -0.3660    -3.7600    -1.3560 c6         1 MIH      -0.069400
     34 HAB         -5.9710     0.2440     2.3510 ha         1 MIH       0.142000
     35 HAC         -3.5940    -0.4180     2.2030 ha         1 MIH       0.129000
     36 HAF         -5.6540     2.1650    -1.4770 ha         1 MIH       0.155000
     37 HAN         -2.3240    -2.0030     0.1550 ha         1 MIH       0.135000
     38 HAO         -1.9150     2.8590     0.3980 ha         1 MIH       0.139000
     39 HAP          0.0770     4.2930     0.3100 h4         1 MIH       0.171000
     40 HAU          5.4760    -0.4680     1.7760 ha         1 MIH       0.132500
     41 HAV          6.6180    -0.4020    -0.4160 ha         1 MIH       0.121000
     42 HAW          5.4580     0.5050    -2.3990 ha         1 MIH       0.132500
     43 HBB          1.2500    -3.1950    -0.0700 hc         1 MIH       0.076700
     44 HBC          0.0850    -3.5250     2.0690 hc         1 MIH       0.050950
     45 HBCA        -1.4400    -3.8170     1.2390 hc         1 MIH       0.050950
     46 HBD          1.0920    -5.5020     1.0450 h1         1 MIH       0.032450
     47 HBDA        -0.4130    -5.9550     1.8420 h1         1 MIH       0.032450
     48 HNBE        -0.3840    -6.9050    -0.2960 hn         1 MIH       0.413000
     49 HBF          1.0750    -5.3470    -1.4730 h1         1 MIH       0.032450
     50 HBFA        -0.4440    -5.6940    -2.2970 h1         1 MIH       0.032450
     51 HBG         -1.4520    -3.6410    -1.4250 hc         1 MIH       0.050950
     52 HBGA         0.0690    -3.2550    -2.2210 hc         1 MIH       0.050950
@<TRIPOS>BOND
     1     1     2 ar  
     2     1     6 ar  
     3     1     7 1   
     4     2     3 ar  
     5     2    34 1   
     6     3     4 ar  
     7     3    35 1   
     8     4     5 ar  
     9     4     9 1   
    10     5     6 ar  
    11     5     8 1   
    12     6    36 1   
    13     9    10 ar  
    14     9    14 ar  
    15    10    11 ar  
    16    10    15 ar  
    17    11    12 ar  
    18    11    18 ar  
    19    12    13 ar  
    20    13    14 ar  
    21    13    28 1   
    22    14    37 1   
    23    15    16 ar  
    24    15    38 1   
    25    16    17 2   
    26    16    39 1   
    27    17    18 1   
    28    17    27 1   
    29    18    19 1   
    30    19    20 ar  
    31    19    24 ar  
    32    20    21 ar  
    33    20    26 1   
    34    21    22 ar  
    35    21    40 1   
    36    22    23 ar  
    37    22    41 1   
    38    23    24 ar  
    39    23    42 1   
    40    24    25 1   
    41    28    29 1   
    42    28    33 1   
    43    28    43 1   
    44    29    30 1   
    45    29    44 1   
    46    29    45 1   
    47    30    31 1   
    48    30    46 1   
    49    30    47 1   
    50    31    32 1   
    51    31    48 1   
    52    32    33 1   
    53    32    49 1   
    54    32    50 1   
    55    33    51 1   
    56    33    52 1   
@<TRIPOS>SUBSTRUCTURE
     1 MIH         1 TEMP              0 ****  ****    0 ROOT
