@<TRIPOS>MOLECULE
MIH
   52    56     1     0     0
SMALL
No Charge or Current Charge


@<TRIPOS>ATOM
      1 CAA         -6.0140     1.3190     0.4560 ca         1 MIH       0.211000
      2 CAB         -5.4310     0.5650     1.4860 ca         1 MIH      -0.170000
      3 CAC         -4.0830     0.1780     1.3950 ca         1 MIH      -0.041000
      4 CAD         -3.3000     0.5480     0.2750 cp         1 MIH      -0.117000
      5 CAE         -3.9170     1.2990    -0.7580 ca         1 MIH       0.215000
      6 CAF         -5.2620     1.6850    -0.6670 ca         1 MIH      -0.202000
      7 FAG         -7.3100     1.6880     0.5450 f          1 MIH      -0.166000
      8 FAH         -3.2140     1.6470    -1.8590 f          1 MIH      -0.163000
      9 CAI         -1.8740     0.1190     0.1840 cp         1 MIH       0.034000
     10 CAJ         -0.7800     1.0270     0.1910 ca         1 MIH      -0.099000
     11 CAK          0.5470     0.5250     0.0770 ca         1 MIH       0.324000
     12 NAL          0.7920    -0.8020    -0.0230 nb         1 MIH      -0.656000
     13 CAM         -0.2390    -1.6710    -0.0140 ca         1 MIH       0.398300
     14 CAN         -1.5720    -1.2520     0.0900 ca         1 MIH      -0.149000
     15 CAO         -0.9890     2.4160     0.3290 ca         1 MIH      -0.050000
     16 CAP          0.1030     3.2940     0.3300 ca         1 MIH      -0.151300
     17 NAQ          1.3980     2.8240     0.1940 na         1 MIH       0.492300
     18 CAR          1.6420     1.4260     0.0770 cp         1 MIH      -0.150000
     19 CAS          3.0440     0.9200    -0.0410 cp         1 MIH       0.007000
     20 CAT          3.8220     0.6590     1.1150 ca         1 MIH       0.164500
     21 CAU          5.1380     0.1790     1.0020 ca         1 MIH      -0.110000
     22 CAV          5.7010    -0.0500    -0.2640 ca         1 MIH      -0.084000
     23 CAW          4.9430     0.2020    -1.4200 ca         1 MIH      -0.110000
     24 CAX          3.6270     0.6830    -1.3120 ca         1 MIH       0.164500
     25 ClAY         2.7210     0.9890    -2.7940 cl         1 MIH      -0.188500
     26 ClAZ         3.1610     0.9260     2.7280 cl         1 MIH      -0.188500
     27 OBA          2.3360     3.6320     0.1710 o          1 MIH      -0.487000
     28 CBB          0.1390    -3.1540    -0.1280 c6         1 MIH      -0.126000
     29 CBC         -0.3030    -3.9730     1.1180 c6         1 MIH      -0.069400
     30 CBD          0.0690    -5.4700     0.9660 c6         1 MIH       0.159800
     31 NBE         -0.4980    -6.0410    -0.2800 n7         1 MIH      -0.865400
     32 CBF         -0.0620    -5.3120    -1.4950 c6         1 MIH       0.159800
     33 CBG         -0.4370    -3.8110    -1.4150 c6         1 MIH      -0.069400
     34 HAB         -6.0250     0.2820     2.3520 ha         1 MIH       0.142000
     35 HAC         -3.6360    -0.4070     2.1970 ha         1 MIH       0.129000
     36 HAF         -5.7200     2.2610    -1.4650 ha         1 MIH       0.155000
     37 HAN         -2.3740    -1.9840     0.0850 ha         1 MIH       0.135000
     38 HAO         -1.9900     2.8260     0.4440 ha         1 MIH       0.139000
     39 HAP         -0.0230     4.3700     0.4370 h4         1 MIH       0.171000
     40 HAU          5.7210    -0.0170     1.8990 ha         1 MIH       0.132500
     41 HAV          6.7200    -0.4220    -0.3500 ha         1 MIH       0.121000
     42 HAW          5.3760     0.0270    -2.4020 ha         1 MIH       0.132500
     43 HBB          1.2350    -3.2240    -0.1910 hc         1 MIH       0.076700
     44 HBC          0.1710    -3.5670     2.0220 hc         1 MIH       0.050950
     45 HBCA        -1.3870    -3.8860     1.2690 hc         1 MIH       0.050950
     46 HBD          1.1640    -5.5750     0.9520 h1         1 MIH       0.032450
     47 HBDA        -0.3080    -6.0330     1.8330 h1         1 MIH       0.032450
     48 HNBE        -0.2010    -7.0230    -0.3580 hn         1 MIH       0.413000
     49 HBF          1.0280    -5.4110    -1.6100 h1         1 MIH       0.032450
     50 HBFA        -0.5320    -5.7620    -2.3820 h1         1 MIH       0.032450
     51 HBG         -1.5310    -3.7110    -1.4380 hc         1 MIH       0.050950
     52 HBGA        -0.0590    -3.2890    -2.3050 hc         1 MIH       0.050950
@<TRIPOS>BOND
     1     1     2 ar  
     2     1     6 ar  
     3     1     7 1   
     4     2     3 ar  
     5     2    34 1   
     6     3     4 ar  
     7     3    35 1   
     8     4     5 ar  
     9     4     9 1   
    10     5     6 ar  
    11     5     8 1   
    12     6    36 1   
    13     9    10 ar  
    14     9    14 ar  
    15    10    11 ar  
    16    10    15 ar  
    17    11    12 ar  
    18    11    18 ar  
    19    12    13 ar  
    20    13    14 ar  
    21    13    28 1   
    22    14    37 1   
    23    15    16 ar  
    24    15    38 1   
    25    16    17 2   
    26    16    39 1   
    27    17    18 1   
    28    17    27 1   
    29    18    19 1   
    30    19    20 ar  
    31    19    24 ar  
    32    20    21 ar  
    33    20    26 1   
    34    21    22 ar  
    35    21    40 1   
    36    22    23 ar  
    37    22    41 1   
    38    23    24 ar  
    39    23    42 1   
    40    24    25 1   
    41    28    29 1   
    42    28    33 1   
    43    28    43 1   
    44    29    30 1   
    45    29    44 1   
    46    29    45 1   
    47    30    31 1   
    48    30    46 1   
    49    30    47 1   
    50    31    32 1   
    51    31    48 1   
    52    32    33 1   
    53    32    49 1   
    54    32    50 1   
    55    33    51 1   
    56    33    52 1   
@<TRIPOS>SUBSTRUCTURE
     1 MIH         1 TEMP              0 ****  ****    0 ROOT
