@<TRIPOS>MOLECULE
MII
   45    47     1     0     0
SMALL
bcc


@<TRIPOS>ATOM
      1 C           -1.4490    -1.0730     0.9910 c          1 MII       0.671500
      2 N            0.7670     0.0560     0.5770 ns         1 MII      -0.530900
      3 O           -1.3670    -2.2720     0.9500 o          1 MII      -0.580500
      4 CA          -0.4760     0.0870     1.2640 cy         1 MII       0.004700
      5 CB          -1.6180     0.9590     0.6900 cy         1 MII       0.159800
      6 CAA          2.7490    -3.6120    -0.6950 c3         1 MII       0.127200
      7 CAB          4.3440     3.2710     0.4570 c3         1 MII       0.127200
      8 CAC         -3.5140     0.5070    -2.7410 c3         1 MII      -0.076600
      9 CAD         -4.1840     2.0300    -0.8710 c3         1 MII      -0.076600
     10 OAE         -5.1560    -0.2640     1.3070 o          1 MII      -0.810800
     11 OAH         -5.6940    -0.9740    -0.7410 o          1 MII      -0.810800
     12 CAI          5.3060    -0.3600    -1.4210 ca         1 MII      -0.046000
     13 CAJ          4.5080    -1.4740    -1.2070 ca         1 MII      -0.264500
     14 CAK          5.0430     0.8630    -0.8210 ca         1 MII      -0.264500
     15 SAO         -1.5200     1.3870    -1.0680 ss         1 MII      -0.496200
     16 CAP         -4.9050    -0.5570     0.1290 c          1 MII       0.944600
     17 CAQ          1.9640    -0.0180     1.1940 c          1 MII       0.716700
     18 CAS          3.4080    -1.3560    -0.3590 ca         1 MII       0.208600
     19 CAT          3.9430     0.9710     0.0270 ca         1 MII       0.208600
     20 CAU          3.1220    -0.1350     0.2510 ca         1 MII      -0.225600
     21 CAW         -3.4480    -0.3800    -0.3550 c5         1 MII      -0.044300
     22 NAX         -2.4750    -0.2180     0.7080 nj         1 MII      -0.376800
     23 CAY         -3.2870     0.8640    -1.2820 c5         1 MII       0.113100
     24 HN           0.7440    -0.0380    -0.4280 hn         1 MII       0.332500
     25 HA          -0.3080     0.2680     2.3250 h1         1 MII       0.110700
     26 HB          -1.9500     1.7980     1.3000 h2         1 MII       0.104700
     27 HAA          1.9570    -4.2590    -0.3280 h1         1 MII       0.041367
     28 HAAA         2.6660    -3.5320    -1.7810 h1         1 MII       0.041367
     29 HAAB         3.7140    -4.0580    -0.4440 h1         1 MII       0.041367
     30 HAB          5.3810     3.1410     0.7760 h1         1 MII       0.041367
     31 HABA         4.3290     3.5880    -0.5880 h1         1 MII       0.041367
     32 HABB         3.8840     4.0450     1.0660 h1         1 MII       0.041367
     33 HAC         -3.3630     1.3730    -3.3870 hc         1 MII       0.043867
     34 HACA        -2.8450    -0.2890    -3.0670 hc         1 MII       0.043867
     35 HACB        -4.5400     0.1650    -2.8720 hc         1 MII       0.043867
     36 HAD         -5.2330     1.7810    -1.0420 hc         1 MII       0.043867
     37 HADA        -4.0690     2.2960     0.1800 hc         1 MII       0.043867
     38 HADB        -3.9510     2.9100    -1.4700 hc         1 MII       0.043867
     39 HAI          6.1600    -0.4470    -2.0780 ha         1 MII       0.121000
     40 HAJ          4.7520    -2.4070    -1.6940 ha         1 MII       0.135000
     41 HAK          5.6920     1.7040    -1.0210 ha         1 MII       0.135000
     42 HAW         -3.1650    -1.2680    -0.9300 h1         1 MII       0.058700
     43 OAN          3.5800     2.0970     0.6620 os         1 MII      -0.297400
     44 OAM          2.5660    -2.3590    -0.0610 os         1 MII      -0.297400
     45 OAF          2.1070     0.0190     2.4030 o          1 MII      -0.594100
@<TRIPOS>BOND
     1     1     3 2   
     2     1     4 1   
     3     1    22 1   
     4     2     4 1   
     5     2    17 1   
     6     2    24 1   
     7     4     5 1   
     8     4    25 1   
     9     5    15 1   
    10     5    22 1   
    11     5    26 1   
    12     6    27 1   
    13     6    28 1   
    14     6    29 1   
    15     6    44 1   
    16     7    30 1   
    17     7    31 1   
    18     7    32 1   
    19     7    43 1   
    20     8    23 1   
    21     8    33 1   
    22     8    34 1   
    23     8    35 1   
    24     9    23 1   
    25     9    36 1   
    26     9    37 1   
    27     9    38 1   
    28    10    16 1   
    29    11    16 1   
    30    12    13 ar  
    31    12    14 ar  
    32    12    39 1   
    33    13    18 ar  
    34    13    40 1   
    35    14    19 ar  
    36    14    41 1   
    37    15    23 1   
    38    16    21 1   
    39    17    20 1   
    40    17    45 2   
    41    18    20 ar  
    42    18    44 1   
    43    19    20 ar  
    44    19    43 1   
    45    21    22 1   
    46    21    23 1   
    47    21    42 1   
@<TRIPOS>SUBSTRUCTURE
     1 MII         1 TEMP              0 ****  ****    0 ROOT
