@<TRIPOS>MOLECULE
MII
   45    47     1     0     0
SMALL
No Charge or Current Charge


@<TRIPOS>ATOM
      1 C           -1.6740    -1.6180     0.5050 c          1 MII       0.529000
      2 N            0.7660    -0.6980     0.5000 ns         1 MII      -0.463900
      3 O           -1.7340    -2.7970     0.1840 o          1 MII      -0.505000
      4 CA          -0.5740    -0.6590     1.0620 cy         1 MII       0.004700
      5 CB          -1.5730     0.4750     0.6350 cy         1 MII       0.207700
      6 CAA          3.1250    -3.7490    -0.5120 c3         1 MII       0.150400
      7 CAB          4.2890     3.5260     0.1890 c3         1 MII       0.150400
      8 CAC         -3.8250     1.0190    -2.6850 c3         1 MII      -0.076600
      9 CAD         -4.0280     2.2820    -0.5090 c3         1 MII      -0.076600
     10 OAE         -5.2390    -0.1190     1.3830 o          1 MII      -0.705500
     11 OAH         -6.0820    -0.6740    -0.5000 o          1 MII      -0.705500
     12 CAI          5.5860    -0.3140    -1.1910 ca         1 MII      -0.028000
     13 CAJ          4.7720    -1.4320    -0.9900 ca         1 MII      -0.246500
     14 CAK          5.1750     0.9370    -0.7240 ca         1 MII      -0.246500
     15 SAO         -1.5670     1.1600    -1.0840 ss         1 MII      -0.592000
     16 CAP         -5.1240    -0.3440     0.1850 c          1 MII       0.734000
     17 CAQ          1.7980     0.1220     0.8940 c          1 MII       0.649700
     18 CAS          3.5380    -1.3110    -0.3160 ca         1 MII       0.208600
     19 CAT          3.9440     1.0820    -0.0480 ca         1 MII       0.208600
     20 CAU          3.1120    -0.0450     0.1640 ca         1 MII      -0.225600
     21 CAW         -3.7090    -0.3410    -0.4730 c5         1 MII      -0.044300
     22 NAX         -2.5930    -0.5660     0.4620 nj         1 MII      -0.309800
     23 CAY         -3.4190     1.0270    -1.1930 c5         1 MII       0.161000
     24 HN           0.9930    -1.3590    -0.2330 hn         1 MII       0.332500
     25 HA          -0.4970    -0.7570     2.1500 h1         1 MII       0.110700
     26 HB          -1.8040     1.2520     1.3740 h2         1 MII       0.104700
     27 HAA          2.3530    -4.4720    -0.2210 h1         1 MII       0.041367
     28 HAAA         3.2350    -3.7910    -1.6030 h1         1 MII       0.041367
     29 HAAB         4.0700    -4.0570    -0.0480 h1         1 MII       0.041367
     30 HAB          5.2580     3.4470     0.7000 h1         1 MII       0.041367
     31 HABA         4.4650     3.7180    -0.8770 h1         1 MII       0.041367
     32 HABB         3.7560     4.3890     0.6060 h1         1 MII       0.041367
     33 HAC         -3.5220     1.9460    -3.1860 hc         1 MII       0.043867
     34 HACA        -3.3540     0.1860    -3.2190 hc         1 MII       0.043867
     35 HACB        -4.9110     0.9160    -2.8000 hc         1 MII       0.043867
     36 HAD         -5.1210     2.2980    -0.5960 hc         1 MII       0.043867
     37 HADA        -3.7800     2.3250     0.5580 hc         1 MII       0.043867
     38 HADB        -3.6520     3.2030    -0.9700 hc         1 MII       0.043867
     39 HAI          6.5370    -0.4170    -1.7120 ha         1 MII       0.103000
     40 HAJ          5.1230    -2.3890    -1.3630 ha         1 MII       0.117000
     41 HAK          5.8270     1.7860    -0.9030 ha         1 MII       0.117000
     42 HAW         -3.6870    -1.1640    -1.1990 h1         1 MII       0.058700
     43 OAN          3.5150     2.3280     0.3730 os         1 MII      -0.320600
     44 OAM          2.7530    -2.4270    -0.0860 os         1 MII      -0.320600
     45 OAF          1.6450     0.9060     1.8230 o          1 MII      -0.594100
@<TRIPOS>BOND
     1     1     3 2   
     2     1     4 1   
     3     1    22 1   
     4     2     4 1   
     5     2    17 1   
     6     2    24 1   
     7     4     5 1   
     8     4    25 1   
     9     5    15 1   
    10     5    22 1   
    11     5    26 1   
    12     6    27 1   
    13     6    28 1   
    14     6    29 1   
    15     6    44 1   
    16     7    30 1   
    17     7    31 1   
    18     7    32 1   
    19     7    43 1   
    20     8    23 1   
    21     8    33 1   
    22     8    34 1   
    23     8    35 1   
    24     9    23 1   
    25     9    36 1   
    26     9    37 1   
    27     9    38 1   
    28    10    16 1   
    29    11    16 1   
    30    12    13 ar  
    31    12    14 ar  
    32    12    39 1   
    33    13    18 ar  
    34    13    40 1   
    35    14    19 ar  
    36    14    41 1   
    37    15    23 1   
    38    16    21 1   
    39    17    20 1   
    40    17    45 2   
    41    18    20 ar  
    42    18    44 1   
    43    19    20 ar  
    44    19    43 1   
    45    21    22 1   
    46    21    23 1   
    47    21    42 1   
@<TRIPOS>SUBSTRUCTURE
     1 MII         1 TEMP              0 ****  ****    0 ROOT
