@<TRIPOS>MOLECULE
MIJ
   74    77     1     0     0
SMALL
No Charge or Current Charge


@<TRIPOS>ATOM
      1 N1         -16.0070   -22.1750    -0.2280 ns         1 MIJ      -0.410100
      2 N3         -14.2180   -26.8560     0.7830 ns         1 MIJ      -0.512900
      3 C4         -13.6930   -20.1540     2.2040 ca         1 MIJ      -0.094500
      4 C5         -14.2020   -19.6580     0.9870 ca         1 MIJ      -0.071300
      5 C6         -13.3500   -18.9350     0.1280 ca         1 MIJ      -0.094500
      6 C7         -15.6610   -19.8930     0.6040 c3         1 MIJ      -0.114100
      7 C8         -15.7680   -20.8560    -0.5830 c          1 MIJ       0.601100
      8 C10        -16.2550   -24.6340    -0.2520 c          1 MIJ       0.526200
      9 C13        -16.1490   -23.3260    -2.3840 cc         1 MIJ      -0.134000
     10 C15        -14.9750   -27.6480    -0.0540 c          1 MIJ       0.573100
     11 C17        -12.4930   -28.2250     2.0050 c3         1 MIJ       0.077300
     12 C20        -18.7770   -27.7750    -1.1130 cx         1 MIJ      -0.137700
     13 C21        -19.7320   -27.7790     0.0570 cx         1 MIJ      -0.125400
     14 C22        -19.9130   -28.7700    -1.0720 cx         1 MIJ      -0.125400
     15 C24        -12.5770   -24.3930     0.7470 c5         1 MIJ      -0.153700
     16 C26        -12.3600   -22.9340    -1.1500 c5         1 MIJ       0.099000
     17 C28         -8.7260   -29.1570     2.2810 c3         1 MIJ       0.095300
     18 C1         -12.0070   -18.7150     0.4770 ca         1 MIJ      -0.110500
     19 C2         -11.5070   -19.2110     1.6920 ca         1 MIJ      -0.105000
     20 C3         -12.3510   -19.9270     2.5560 ca         1 MIJ      -0.110500
     21 O1         -15.6190   -20.4680    -1.7330 o          1 MIJ      -0.583100
     22 C9         -16.1390   -23.3390    -1.0000 cd         1 MIJ      -0.060600
     23 N2         -16.3820   -25.8130    -1.0340 n          1 MIJ      -0.251000
     24 C11        -16.3410   -25.7560    -2.4300 cd         1 MIJ      -0.063400
     25 C12        -16.2450   -24.5600    -3.1010 cc         1 MIJ      -0.255000
     26 C14        -16.4100   -27.1350    -0.3210 c3         1 MIJ       0.017700
     27 C16        -12.7770   -27.0150     1.0520 c3         1 MIJ       0.078700
     28 C18        -11.0430   -28.2220     2.5930 c          1 MIJ       0.598100
     29 N4         -10.1320   -28.9950     1.9080 ns         1 MIJ      -0.489900
     30 C19        -17.3280   -28.2290    -0.9450 c3         1 MIJ      -0.046400
     31 O3         -14.5170   -28.6690    -0.5500 o          1 MIJ      -0.589100
     32 C23        -12.1770   -25.6680     1.5470 c3         1 MIJ      -0.074400
     33 O4         -12.7950   -29.4710     1.3200 oh         1 MIJ      -0.666000
     34 O5         -10.7350   -27.6230     3.6160 o          1 MIJ      -0.608100
     35 C25        -12.3460   -24.4470    -0.7880 c5         1 MIJ      -0.093400
     36 N5         -11.7120   -22.3670     0.0300 ns         1 MIJ      -0.508900
     37 C27        -11.7840   -23.1430     1.1530 c          1 MIJ       0.556000
     38 O6         -11.1130   -22.9390     2.1510 o          1 MIJ      -0.568000
     39 H1         -16.0610   -22.3020     0.7770 hn         1 MIJ       0.344500
     40 H2         -14.6880   -26.0280     1.1440 hn         1 MIJ       0.339500
     41 H4         -13.7290   -18.5430    -0.8140 ha         1 MIJ       0.113000
     42 H5         -16.1160   -18.9370     0.3200 hc         1 MIJ       0.080200
     43 H6         -16.1970   -20.3090     1.4640 hc         1 MIJ       0.080200
     44 H7         -16.0780   -22.4140    -2.9670 ha         1 MIJ       0.226000
     45 H8         -13.1560   -28.1180     2.8740 h1         1 MIJ       0.070700
     46 H9         -18.8810   -26.9550    -1.8200 hc         1 MIJ       0.083700
     47 H10        -20.4430   -26.9600     0.1330 hc         1 MIJ       0.074700
     48 H11        -19.3750   -28.1600     1.0110 hc         1 MIJ       0.074700
     49 H12        -20.7470   -28.6150    -1.7530 hc         1 MIJ       0.074700
     50 H13        -19.6770   -29.8130    -0.8730 hc         1 MIJ       0.074700
     51 H14        -13.6310   -24.1580     0.9180 hc         1 MIJ       0.068700
     52 H15        -11.8120   -22.7290    -2.0790 h1         1 MIJ       0.052700
     53 H16        -13.3840   -22.5550    -1.2630 h1         1 MIJ       0.052700
     54 H17         -8.2270   -29.8130     1.5560 h1         1 MIJ       0.042367
     55 H18         -8.2300   -28.1780     2.2860 h1         1 MIJ       0.042367
     56 H19         -8.6580   -29.6060     3.2810 h1         1 MIJ       0.042367
     57 H20        -11.3550   -18.1580    -0.1930 ha         1 MIJ       0.112500
     58 H21        -10.4670   -19.0390     1.9650 ha         1 MIJ       0.112000
     59 H22        -11.9640   -20.3130     3.4970 ha         1 MIJ       0.112500
     60 H23        -16.3870   -26.7170    -2.9330 h4         1 MIJ       0.218000
     61 H24        -16.2310   -24.5390    -4.1900 ha         1 MIJ       0.206000
     62 H25        -16.8300   -26.9640     0.6780 h1         1 MIJ       0.101700
     63 H26        -12.2890   -27.2340     0.0910 h1         1 MIJ       0.086700
     64 H27        -10.5000   -29.5130     1.1160 hn         1 MIJ       0.338500
     65 H28        -17.2970   -29.1120    -0.2940 hc         1 MIJ       0.065700
     66 H29        -16.9280   -28.5640    -1.9090 hc         1 MIJ       0.065700
     67 H30        -12.4600   -25.5230     2.5980 hc         1 MIJ       0.079200
     68 H31        -11.0830   -25.7520     1.5360 hc         1 MIJ       0.079200
     69 H32        -13.4640   -29.2510     0.6150 ho         1 MIJ       0.460000
     70 H33        -13.1160   -25.0140    -1.3240 hc         1 MIJ       0.062200
     71 H34        -11.3750   -24.8950    -1.0300 hc         1 MIJ       0.062200
     72 H35        -11.1780   -21.5060     0.0640 hn         1 MIJ       0.332500
     73 O2         -16.2190   -24.6710     0.9750 o          1 MIJ      -0.612000
     74 H3         -14.3340   -20.7140     2.8810 ha         1 MIJ       0.113000
@<TRIPOS>BOND
     1     1     7 1   
     2     1    22 1   
     3     1    39 1   
     4     2    10 1   
     5     2    27 1   
     6     2    40 1   
     7     3     4 ar  
     8     3    20 ar  
     9     3    74 1   
    10     4     5 ar  
    11     4     6 1   
    12     5    18 ar  
    13     5    41 1   
    14     6     7 1   
    15     6    42 1   
    16     6    43 1   
    17     7    21 2   
    18     8    22 1   
    19     8    23 1   
    20     8    73 2   
    21     9    22 2   
    22     9    25 1   
    23     9    44 1   
    24    10    26 1   
    25    10    31 2   
    26    11    27 1   
    27    11    28 1   
    28    11    33 1   
    29    11    45 1   
    30    12    13 1   
    31    12    14 1   
    32    12    30 1   
    33    12    46 1   
    34    13    14 1   
    35    13    47 1   
    36    13    48 1   
    37    14    49 1   
    38    14    50 1   
    39    15    32 1   
    40    15    35 1   
    41    15    37 1   
    42    15    51 1   
    43    16    35 1   
    44    16    36 1   
    45    16    52 1   
    46    16    53 1   
    47    17    29 1   
    48    17    54 1   
    49    17    55 1   
    50    17    56 1   
    51    18    19 ar  
    52    18    57 1   
    53    19    20 ar  
    54    19    58 1   
    55    20    59 1   
    56    23    24 1   
    57    23    26 1   
    58    24    25 2   
    59    24    60 1   
    60    25    61 1   
    61    26    30 1   
    62    26    62 1   
    63    27    32 1   
    64    27    63 1   
    65    28    29 1   
    66    28    34 2   
    67    29    64 1   
    68    30    65 1   
    69    30    66 1   
    70    32    67 1   
    71    32    68 1   
    72    33    69 1   
    73    35    70 1   
    74    35    71 1   
    75    36    37 1   
    76    36    72 1   
    77    37    38 2   
@<TRIPOS>SUBSTRUCTURE
     1 MIJ         1 TEMP              0 ****  ****    0 ROOT
