@<TRIPOS>MOLECULE
MIJ
   74    77     1     0     0
SMALL
abcg2


@<TRIPOS>ATOM
      1 N1         -15.5170   -22.4110     0.1600 ns         1 MIJ      -0.410100
      2 N3         -14.3680   -27.2350     1.0240 ns         1 MIJ      -0.512900
      3 C4         -12.4850   -19.0560     1.1880 ca         1 MIJ      -0.094500
      4 C5         -13.8680   -19.1750     1.0590 ca         1 MIJ      -0.071300
      5 C6         -14.6100   -18.0440     0.7170 ca         1 MIJ      -0.094500
      6 C7         -14.5430   -20.5010     1.2650 c3         1 MIJ      -0.114100
      7 C8         -14.8360   -21.2430    -0.0350 c          1 MIJ       0.601100
      8 C10        -16.0880   -24.6860    -0.1380 c          1 MIJ       0.526200
      9 C13        -15.6580   -23.3200    -2.1280 cc         1 MIJ      -0.134000
     10 C15        -14.9270   -27.6170    -0.1460 c          1 MIJ       0.573100
     11 C17        -12.7500   -28.4080     2.4400 c3         1 MIJ       0.077300
     12 C20        -18.6520   -27.5730    -1.2930 cx         1 MIJ      -0.137700
     13 C21        -19.6190   -27.6590    -0.1440 cx         1 MIJ      -0.125400
     14 C22        -19.7940   -28.5480    -1.3490 cx         1 MIJ      -0.125400
     15 C24        -12.6370   -24.9090     0.6640 c5         1 MIJ      -0.153700
     16 C26        -11.8590   -23.6740    -1.2630 c5         1 MIJ       0.099000
     17 C28         -9.3860   -30.1500     2.0910 c3         1 MIJ       0.095300
     18 C1         -13.9830   -16.8220     0.5020 ca         1 MIJ      -0.110500
     19 C2         -12.6010   -16.7140     0.6290 ca         1 MIJ      -0.105000
     20 C3         -11.8530   -17.8350     0.9750 ca         1 MIJ      -0.110500
     21 O1         -14.4850   -20.8470    -1.1370 o          1 MIJ      -0.583100
     22 C9         -15.7600   -23.4230    -0.7670 cd         1 MIJ      -0.060600
     23 N2         -16.2280   -25.7720    -0.9880 n          1 MIJ      -0.251000
     24 C11        -16.1000   -25.6640    -2.3450 cd         1 MIJ      -0.063400
     25 C12        -15.8420   -24.4670    -2.9290 cc         1 MIJ      -0.255000
     26 C14        -16.3630   -27.1040    -0.3470 c3         1 MIJ       0.017700
     27 C16        -12.9440   -27.3560     1.3190 c3         1 MIJ       0.078700
     28 C18        -11.2670   -28.6960     2.6670 c          1 MIJ       0.598100
     29 N4         -10.7760   -29.7420     1.9950 ns         1 MIJ      -0.489900
     30 C19        -17.2420   -28.0810    -1.1150 c3         1 MIJ      -0.046400
     31 O3         -14.3490   -28.2650    -1.0100 o          1 MIJ      -0.589100
     32 C23        -12.3510   -25.9940     1.6920 c3         1 MIJ      -0.074400
     33 O4         -13.4000   -29.6280     2.1110 oh         1 MIJ      -0.666000
     34 O5         -10.5880   -27.9760     3.4010 o          1 MIJ      -0.608100
     35 C25        -12.0520   -25.1060    -0.7390 c5         1 MIJ      -0.093400
     36 N5         -11.6860   -22.9100    -0.0320 ns         1 MIJ      -0.508900
     37 C27        -12.1260   -23.5310     1.0770 c          1 MIJ       0.556000
     38 O6         -12.1480   -23.0570     2.2110 o          1 MIJ      -0.568000
     39 H1         -15.6990   -22.6980     1.1140 hn         1 MIJ       0.344500
     40 H2         -14.9210   -26.6280     1.6150 hn         1 MIJ       0.339500
     41 H4         -15.6870   -18.1240     0.6180 ha         1 MIJ       0.113000
     42 H5         -15.4880   -20.3780     1.8010 hc         1 MIJ       0.080200
     43 H6         -13.9170   -21.1590     1.8750 hc         1 MIJ       0.080200
     44 H7         -15.4120   -22.3720    -2.5790 ha         1 MIJ       0.226000
     45 H8         -13.1430   -28.0020     3.3770 h1         1 MIJ       0.070700
     46 H9         -18.7490   -26.6990    -1.9260 hc         1 MIJ       0.083700
     47 H10        -20.3190   -26.8460    -0.0010 hc         1 MIJ       0.074700
     48 H11        -19.2650   -28.1170     0.7710 hc         1 MIJ       0.074700
     49 H12        -20.6120   -28.3370    -2.0250 hc         1 MIJ       0.074700
     50 H13        -19.5590   -29.5990    -1.2360 hc         1 MIJ       0.074700
     51 H14        -13.7190   -24.7790     0.5900 hc         1 MIJ       0.068700
     52 H15        -10.9870   -23.5730    -1.9090 h1         1 MIJ       0.052700
     53 H16        -12.7390   -23.3250    -1.8090 h1         1 MIJ       0.052700
     54 H17         -9.2350   -31.0120     1.4460 h1         1 MIJ       0.042367
     55 H18         -8.7240   -29.3440     1.7720 h1         1 MIJ       0.042367
     56 H19         -9.1270   -30.4210     3.1170 h1         1 MIJ       0.042367
     57 H20        -14.5730   -15.9530     0.2380 ha         1 MIJ       0.112500
     58 H21        -12.1120   -15.7620     0.4640 ha         1 MIJ       0.112000
     59 H22        -10.7780   -17.7590     1.0810 ha         1 MIJ       0.112500
     60 H23        -16.2120   -26.5740    -2.9090 h4         1 MIJ       0.218000
     61 H24        -15.7600   -24.4060    -4.0040 ha         1 MIJ       0.206000
     62 H25        -16.8170   -26.9130     0.6210 h1         1 MIJ       0.101700
     63 H26        -12.4760   -27.7410     0.4140 h1         1 MIJ       0.086700
     64 H27        -11.4230   -30.3030     1.4640 hn         1 MIJ       0.338500
     65 H28        -17.2580   -29.0020    -0.5260 hc         1 MIJ       0.065700
     66 H29        -16.7930   -28.3450    -2.0730 hc         1 MIJ       0.065700
     67 H30        -12.7530   -25.6780     2.6580 hc         1 MIJ       0.079200
     68 H31        -11.2740   -26.1090     1.8190 hc         1 MIJ       0.079200
     69 H32        -14.3150   -29.4240     1.8730 ho         1 MIJ       0.460000
     70 H33        -12.6940   -25.6950    -1.3910 hc         1 MIJ       0.062200
     71 H34        -11.0850   -25.6090    -0.6650 hc         1 MIJ       0.062200
     72 H35        -11.4340   -21.9330    -0.0250 hn         1 MIJ       0.332500
     73 O2         -16.1840   -24.8080     1.0980 o          1 MIJ      -0.612000
     74 H3         -11.9000   -19.9260     1.4640 ha         1 MIJ       0.113000
@<TRIPOS>BOND
     1     1     7 1   
     2     1    22 1   
     3     1    39 1   
     4     2    10 1   
     5     2    27 1   
     6     2    40 1   
     7     3     4 ar  
     8     3    20 ar  
     9     3    74 1   
    10     4     5 ar  
    11     4     6 1   
    12     5    18 ar  
    13     5    41 1   
    14     6     7 1   
    15     6    42 1   
    16     6    43 1   
    17     7    21 2   
    18     8    22 1   
    19     8    23 1   
    20     8    73 2   
    21     9    22 2   
    22     9    25 1   
    23     9    44 1   
    24    10    26 1   
    25    10    31 2   
    26    11    27 1   
    27    11    28 1   
    28    11    33 1   
    29    11    45 1   
    30    12    13 1   
    31    12    14 1   
    32    12    30 1   
    33    12    46 1   
    34    13    14 1   
    35    13    47 1   
    36    13    48 1   
    37    14    49 1   
    38    14    50 1   
    39    15    32 1   
    40    15    35 1   
    41    15    37 1   
    42    15    51 1   
    43    16    35 1   
    44    16    36 1   
    45    16    52 1   
    46    16    53 1   
    47    17    29 1   
    48    17    54 1   
    49    17    55 1   
    50    17    56 1   
    51    18    19 ar  
    52    18    57 1   
    53    19    20 ar  
    54    19    58 1   
    55    20    59 1   
    56    23    24 1   
    57    23    26 1   
    58    24    25 2   
    59    24    60 1   
    60    25    61 1   
    61    26    30 1   
    62    26    62 1   
    63    27    32 1   
    64    27    63 1   
    65    28    29 1   
    66    28    34 2   
    67    29    64 1   
    68    30    65 1   
    69    30    66 1   
    70    32    67 1   
    71    32    68 1   
    72    33    69 1   
    73    35    70 1   
    74    35    71 1   
    75    36    37 1   
    76    36    72 1   
    77    37    38 2   
@<TRIPOS>SUBSTRUCTURE
     1 MIJ         1 TEMP              0 ****  ****    0 ROOT
