@<TRIPOS>MOLECULE
MIK
   35    35     1     0     0
SMALL
abcg2


@<TRIPOS>ATOM
      1 N          -10.3560    22.4750    -2.3930 n8         1 MIK      -1.000200
      2 CA         -10.3030    21.0650    -2.8020 c3         1 MIK       0.016500
      3 C           -8.9480    20.3430    -2.5430 c          1 MIK       0.686000
      4 O           -7.9790    21.0240    -2.1220 o          1 MIK      -0.740000
      5 CB         -10.7940    20.9120    -4.2530 c3         1 MIK      -0.042400
      6 CG         -10.0670    21.7470    -5.3120 c3         1 MIK      -0.057400
      7 CD          -8.6150    21.3520    -5.5750 c3         1 MIK      -0.072400
      8 CE          -7.9930    22.1320    -6.7280 c3         1 MIK       0.113800
      9 NZ          -8.6100    21.7870    -7.9980 n2         1 MIK      -0.631900
     10 CI1         -8.2730    22.4530    -9.0400 ce         1 MIK       0.627800
     11 CI2         -8.9000    22.0920   -10.3460 ca         1 MIK      -0.080900
     12 NI1         -7.3310    23.4470    -9.0850 nv         1 MIK      -1.088200
     13 CI3         -8.2690    22.3310   -11.5660 ca         1 MIK      -0.137500
     14 CI4         -8.9080    21.9580   -12.7420 ca         1 MIK       0.318900
     15 NI2        -10.1120    21.3820   -12.7780 nb         1 MIK      -0.672000
     16 CI5        -10.7140    21.1570   -11.6040 ca         1 MIK       0.318900
     17 CI6        -10.1550    21.4870   -10.3790 ca         1 MIK      -0.137500
     18 OXT         -8.9420    19.1020    -2.7550 o          1 MIK      -0.740000
     19 H1         -10.1230    22.5310    -1.4070 hn         1 MIK       0.378500
     20 H2          -9.6040    22.9760    -2.8570 hn         1 MIK       0.378500
     21 HA         -11.0240    20.5290    -2.1770 h1         1 MIK       0.037700
     22 HBC1       -11.8520    21.1900    -4.2700 hc         1 MIK       0.029700
     23 HBC2       -10.7370    19.8550    -4.5210 hc         1 MIK       0.029700
     24 HGC1       -10.1040    22.8070    -5.0390 hc         1 MIK       0.017700
     25 HGC2       -10.6250    21.6610    -6.2480 hc         1 MIK       0.017700
     26 HDC1        -8.5590    20.2830    -5.8030 hc         1 MIK       0.074200
     27 HDC2        -8.0130    21.5170    -4.6800 hc         1 MIK       0.074200
     28 HEC1        -6.9140    21.9250    -6.7690 h1         1 MIK       0.025200
     29 HEC2        -8.0920    23.2100    -6.5230 h1         1 MIK       0.025200
     30 HI1         -7.3490    24.0990    -9.8530 hn         1 MIK       0.463500
     31 HI3         -7.2870    22.7800   -11.6160 ha         1 MIK       0.137000
     32 HI4         -8.4240    22.1310   -13.6970 h4         1 MIK       0.013600
     33 HI5        -11.6940    20.6920   -11.6460 h4         1 MIK       0.013600
     34 HI6        -10.6850    21.2830    -9.4600 ha         1 MIK       0.137000
     35 HN1         -7.0010    23.8320    -8.2150 hn         1 MIK       0.463500
@<TRIPOS>BOND
     1     1     2 1   
     2     1    19 1   
     3     1    20 1   
     4     2     3 1   
     5     2     5 1   
     6     2    21 1   
     7     3     4 1   
     8     3    18 1   
     9     5     6 1   
    10     5    22 1   
    11     5    23 1   
    12     6     7 1   
    13     6    24 1   
    14     6    25 1   
    15     7     8 1   
    16     7    26 1   
    17     7    27 1   
    18     8     9 1   
    19     8    28 1   
    20     8    29 1   
    21     9    10 2   
    22    10    11 1   
    23    10    12 1   
    24    11    13 ar  
    25    11    17 ar  
    26    12    30 1   
    27    12    35 1   
    28    13    14 ar  
    29    13    31 1   
    30    14    15 ar  
    31    14    32 1   
    32    15    16 ar  
    33    16    17 ar  
    34    16    33 1   
    35    17    34 1   
@<TRIPOS>SUBSTRUCTURE
     1 MIK         1 TEMP              0 ****  ****    0 ROOT
