@<TRIPOS>MOLECULE
MIK
   35    35     1     0     0
SMALL
No Charge or Current Charge


@<TRIPOS>ATOM
      1 N          -10.1600    22.2910    -2.0180 n8         1 MIK      -1.000200
      2 CA         -10.2630    20.9530    -2.7110 c3         1 MIK       0.016500
      3 C           -8.9710    20.0260    -2.6920 c          1 MIK       0.686000
      4 O           -7.9320    20.4760    -2.2260 o          1 MIK      -0.740000
      5 CB         -10.8750    21.1160    -4.1370 c3         1 MIK      -0.042400
      6 CG         -10.1200    22.0280    -5.1440 c3         1 MIK      -0.057400
      7 CD          -8.7480    21.4920    -5.6300 c3         1 MIK      -0.072400
      8 CE          -8.0850    22.3530    -6.7290 c3         1 MIK       0.113800
      9 NZ          -8.8440    22.2770    -7.9870 n2         1 MIK      -0.631900
     10 CI1         -8.3470    22.6440    -9.1140 ce         1 MIK       0.627800
     11 CI2         -8.8830    22.1150   -10.4170 ca         1 MIK      -0.080900
     12 NI1         -7.4350    23.6590    -9.1960 nv         1 MIK      -1.088200
     13 CI3         -8.1590    22.2190   -11.6290 ca         1 MIK      -0.137500
     14 CI4         -8.6920    21.6750   -12.8100 ca         1 MIK       0.318900
     15 NI2         -9.8810    21.0320   -12.8580 nb         1 MIK      -0.672000
     16 CI5        -10.5720    20.9110   -11.7020 ca         1 MIK       0.318900
     17 CI6        -10.1140    21.4220   -10.4770 ca         1 MIK      -0.137500
     18 OXT         -9.0760    18.8720    -3.0830 o          1 MIK      -0.740000
     19 H1          -9.7860    22.1370    -1.0740 hn         1 MIK       0.378500
     20 H2          -9.4120    22.8280    -2.4720 hn         1 MIK       0.378500
     21 HA         -11.0040    20.3840    -2.1330 h1         1 MIK       0.037700
     22 HBC1       -11.8880    21.5200    -4.0210 hc         1 MIK       0.029700
     23 HBC2       -11.0070    20.1240    -4.5870 hc         1 MIK       0.029700
     24 HGC1        -9.9860    23.0270    -4.7140 hc         1 MIK       0.017700
     25 HGC2       -10.7720    22.1590    -6.0160 hc         1 MIK       0.017700
     26 HDC1        -8.8570    20.4630    -5.9930 hc         1 MIK       0.074200
     27 HDC2        -8.0570    21.4580    -4.7820 hc         1 MIK       0.074200
     28 HEC1        -7.0610    21.9860    -6.8810 h1         1 MIK       0.025200
     29 HEC2        -8.0170    23.3910    -6.3750 h1         1 MIK       0.025200
     30 HI1         -7.4290    24.1700   -10.0710 hn         1 MIK       0.463500
     31 HI3         -7.1860    22.7000   -11.6690 ha         1 MIK       0.137000
     32 HI4         -8.1450    21.7500   -13.7500 h4         1 MIK       0.013600
     33 HI5        -11.5240    20.3830   -11.7600 h4         1 MIK       0.013600
     34 HI6        -10.7220    21.2830    -9.5870 ha         1 MIK       0.137000
     35 HN1         -7.3450    24.2220    -8.3590 hn         1 MIK       0.463500
@<TRIPOS>BOND
     1     1     2 1   
     2     1    19 1   
     3     1    20 1   
     4     2     3 1   
     5     2     5 1   
     6     2    21 1   
     7     3     4 1   
     8     3    18 1   
     9     5     6 1   
    10     5    22 1   
    11     5    23 1   
    12     6     7 1   
    13     6    24 1   
    14     6    25 1   
    15     7     8 1   
    16     7    26 1   
    17     7    27 1   
    18     8     9 1   
    19     8    28 1   
    20     8    29 1   
    21     9    10 2   
    22    10    11 1   
    23    10    12 1   
    24    11    13 ar  
    25    11    17 ar  
    26    12    30 1   
    27    12    35 1   
    28    13    14 ar  
    29    13    31 1   
    30    14    15 ar  
    31    14    32 1   
    32    15    16 ar  
    33    16    17 ar  
    34    16    33 1   
    35    17    34 1   
@<TRIPOS>SUBSTRUCTURE
     1 MIK         1 TEMP              0 ****  ****    0 ROOT
