@<TRIPOS>MOLECULE
MIL
   25    26     1     0     0
SMALL
bcc


@<TRIPOS>ATOM
      1 H1           0.1570    -0.0250    -0.1840 cc         1 MIL      -0.181000
      2 H2           1.4570    -0.1040     0.2740 cd         1 MIL       0.126000
      3 H4           0.7470    -0.0360     2.6150 c          1 MIL       0.351000
      4 H5          -0.6050     0.0260     2.1200 cd         1 MIL      -0.150000
      5 H6          -0.8690     0.0270     0.7750 cc         1 MIL       0.029000
      6 H2A          2.6640    -0.2060    -0.5940 c3         1 MIL      -0.204000
      7 H5A         -1.6460     0.0920     3.0810 c1         1 MIL      -0.078000
      8 H7          -0.1880    -0.0110    -1.6170 ca         1 MIL       0.021000
      9 H8          -1.1420    -0.8910    -2.1220 ca         1 MIL      -0.179000
     10 H3          -1.4670    -0.8350    -3.4680 ca         1 MIL      -0.061000
     11 H9          -0.0100     0.8630    -3.8400 ca         1 MIL      -0.061000
     12 H10          0.3830     0.8910    -2.5110 ca         1 MIL      -0.179000
     13 H4           1.0770    -0.0370     3.7900 o          1 MIL      -0.326000
     14 H3           1.6870    -0.1060     1.6030 na         1 MIL      -0.269000
     15 H5A         -2.4910     0.1480     3.8630 n1         1 MIL      -0.028000
     16 H4          -0.9160     0.0210    -4.3220 nb         1 MIL      -0.134000
     17 H6          -1.8980     0.0830     0.4400 ha         1 MIL       0.152000
     18 H2A1         3.4360    -0.8060    -0.1150 ha         1 MIL       0.107333
     19 H2A2         2.4270    -0.6550    -1.5540 ha         1 MIL       0.107333
     20 H2A3         3.0820     0.7850    -0.7790 ha         1 MIL       0.107333
     21 H2          -1.6190    -1.6240    -1.4840 ha         1 MIL       0.143000
     22 H3          -2.2040    -1.5180    -3.8740 ha         1 MIL       0.159000
     23 H5           0.4260     1.5640    -4.5430 ha         1 MIL       0.159000
     24 H1           1.1090     1.6250    -2.1840 ha         1 MIL       0.143000
     25 HN3          2.6490    -0.1790     1.9130 ha         1 MIL       0.245000
@<TRIPOS>BOND
     1     1     2 2   
     2     1     5 1   
     3     1     8 1   
     4     2     6 1   
     5     2    14 1   
     6     3     4 1   
     7     3    13 2   
     8     3    14 1   
     9     4     5 2   
    10     4     7 1   
    11     5    17 1   
    12     6    18 1   
    13     6    19 1   
    14     6    20 1   
    15     7    15 3   
    16     8     9 ar  
    17     8    12 ar  
    18     9    10 ar  
    19     9    21 1   
    20    10    16 ar  
    21    10    22 1   
    22    11    12 ar  
    23    11    16 ar  
    24    11    23 1   
    25    12    24 1   
    26    14    25 1   
@<TRIPOS>SUBSTRUCTURE
     1 MIL         1 TEMP              0 ****  ****    0 ROOT
