@<TRIPOS>MOLECULE
MIL
   25    26     1     0     0
SMALL
No Charge or Current Charge


@<TRIPOS>ATOM
      1 C1           0.0970     0.0620    -0.1810 cc         1 MIL      -0.169200
      2 C2           1.4240     0.0250     0.2510 cd         1 MIL       0.124400
      3 C4           0.7690    -0.0240     2.6230 c          1 MIL       0.570200
      4 C5          -0.6370    -0.0730     2.1600 cd         1 MIL      -0.135900
      5 C6          -0.9430    -0.0440     0.8140 cc         1 MIL      -0.021000
      6 C2A          2.6850    -0.0920    -0.5770 c3         1 MIL      -0.081900
      7 C5A         -1.6250    -0.1440     3.1750 ch         1 MIL       0.303700
      8 C7          -0.2040     0.0210    -1.6260 ca         1 MIL       0.009200
      9 C8          -1.3100    -0.7110    -2.1040 ca         1 MIL      -0.161000
     10 C3          -1.6040    -0.7240    -3.4770 ca         1 MIL       0.338900
     11 C9           0.1650     0.6860    -3.9420 ca         1 MIL       0.338900
     12 C10          0.5290     0.7480    -2.5870 ca         1 MIL      -0.161000
     13 O4           1.1260    -0.0290     3.7930 o          1 MIL      -0.526000
     14 N3           1.6890     0.0180     1.6070 ns         1 MIL      -0.358100
     15 N5A         -2.4630    -0.2030     3.9860 n1         1 MIL      -0.443000
     16 N4          -0.8820    -0.0410    -4.3920 nb         1 MIL      -0.660000
     17 H6          -1.9830    -0.0670     0.4950 ha         1 MIL       0.202000
     18 H2A1         3.4860    -0.6010    -0.0270 hc         1 MIL       0.068033
     19 H2A2         2.5190    -0.6800    -1.4870 hc         1 MIL       0.068033
     20 H2A3         3.0660     0.8950    -0.8630 hc         1 MIL       0.068033
     21 H2          -1.9300    -1.2980    -1.4340 ha         1 MIL       0.125000
     22 H3          -2.4460    -1.3010    -3.8580 h4         1 MIL       0.022100
     23 H5           0.7210     1.2490    -4.6900 h4         1 MIL       0.022100
     24 H1           1.3480     1.3990    -2.3020 ha         1 MIL       0.125000
     25 HN3          2.6490     0.0220     1.9250 hn         1 MIL       0.331500
@<TRIPOS>BOND
     1     1     2 2   
     2     1     5 1   
     3     1     8 1   
     4     2     6 1   
     5     2    14 1   
     6     3     4 1   
     7     3    13 2   
     8     3    14 1   
     9     4     5 2   
    10     4     7 1   
    11     5    17 1   
    12     6    18 1   
    13     6    19 1   
    14     6    20 1   
    15     7    15 3   
    16     8     9 ar  
    17     8    12 ar  
    18     9    10 ar  
    19     9    21 1   
    20    10    16 ar  
    21    10    22 1   
    22    11    12 ar  
    23    11    16 ar  
    24    11    23 1   
    25    12    24 1   
    26    14    25 1   
@<TRIPOS>SUBSTRUCTURE
     1 MIL         1 TEMP              0 ****  ****    0 ROOT
