@<TRIPOS>MOLECULE
MIM
   95    97     1     0     0
SMALL
No Charge or Current Charge


@<TRIPOS>ATOM
      1 CIB         -0.8940     0.8520    12.2590 c3         1 MIM      -0.121400
      2 NGB         -3.2850     0.2340    12.5750 nc         1 MIM      -0.676000
      3 CBB         -2.1630     0.1410    11.8770 cd         1 MIM       0.403800
      4 NAB         -2.3310    -0.6860    10.7750 na         1 MIM      -0.166500
      5 CEB         -3.6440    -1.1240    10.8020 cd         1 MIM      -0.234000
      6 CDB         -4.1950    -0.5430    11.9140 cc         1 MIM       0.232900
      7 C9B         -1.3190    -1.0310     9.7630 c3         1 MIM       0.071600
      8 C8B         -1.2980    -0.0420     8.5790 c3         1 MIM      -0.099400
      9 C7B         -0.2330    -0.3980     7.5200 c3         1 MIM      -0.073400
     10 C6B         -0.2060     0.5880     6.3330 c3         1 MIM      -0.029100
     11 C3B          0.8530     0.2150     5.3050 ca         1 MIM      -0.076300
     12 C2B          0.5340    -0.6380     4.2320 ca         1 MIM      -0.106500
     13 C1B          1.5130    -0.9870     3.2860 ca         1 MIM      -0.091000
     14 C0B          2.8240    -0.4870     3.4020 ca         1 MIM      -0.068300
     15 C5B          3.1440     0.3670     4.4760 ca         1 MIM      -0.091000
     16 C4B          2.1640     0.7140     5.4220 ca         1 MIM      -0.106500
     17 CAB          3.8850    -0.8600     2.3710 c3         1 MIM      -0.111100
     18 CB           3.8490     0.1080     1.1850 c          1 MIM       0.601100
     19 OB           4.3480     1.2240     1.2260 o          1 MIM      -0.603100
     20 NS           3.1900    -0.3570     0.0700 ns         1 MIM      -0.496900
     21 CAS          3.0360     0.3880    -1.2050 c3         1 MIM       0.037700
     22 CS           1.8800    -0.2130    -2.0510 c          1 MIM       0.609100
     23 OS           1.3070    -1.2560    -1.7530 o          1 MIM      -0.605100
     24 CBS          4.3640     0.4560    -2.0060 c3         1 MIM       0.141600
     25 OGS          4.8170    -0.8600    -2.3630 oh         1 MIM      -0.657000
     26 NK           1.5150     0.5220    -3.1630 ns         1 MIM      -0.491900
     27 CAK          0.4340     0.1610    -4.1110 c3         1 MIM       0.032700
     28 CK           0.8730     0.4840    -5.5700 c          1 MIM       0.586100
     29 OK           1.8520     1.1720    -5.8390 o          1 MIM      -0.613100
     30 CBK         -0.8980     0.8760    -3.7510 c3         1 MIM      -0.086400
     31 CGK         -1.4640     0.5250    -2.3530 c3         1 MIM      -0.074400
     32 CDK         -2.8300     1.1890    -2.0710 c3         1 MIM      -0.079400
     33 CEK         -3.3870     0.8400    -0.6750 c3         1 MIM       0.149800
     34 NZK         -4.6930     1.4830    -0.4380 n8         1 MIM      -0.996200
     35 NY           0.0830    -0.0640    -6.5570 ns         1 MIM      -0.499900
     36 CAY          0.3100     0.1190    -7.9900 c3         1 MIM       0.102000
     37 CBY         -0.7940    -0.5570    -8.8300 c3         1 MIM      -0.091400
     38 CGY         -0.5840    -0.4950   -10.3740 c6         1 MIM      -0.057700
     39 CKY         -1.6660    -1.3350   -11.1110 c6         1 MIM      -0.072400
     40 CHY         -1.4720    -1.2990   -12.6470 c6         1 MIM      -0.072900
     41 CZY         -1.4650     0.1550   -13.1750 c6         1 MIM      -0.075400
     42 CEY         -0.3870     1.0010   -12.4550 c6         1 MIM      -0.072900
     43 CDY         -0.5750     0.9650   -10.9180 c6         1 MIM      -0.072400
     44 HIB1        -1.0390     1.4870    13.1410 hc         1 MIM       0.052033
     45 HIB2        -0.1000     0.1330    12.4900 hc         1 MIM       0.052033
     46 HIB3        -0.5440     1.4920    11.4410 hc         1 MIM       0.052033
     47 HEB         -4.0770    -1.7870    10.0630 h4         1 MIM       0.154000
     48 HDB         -5.2070    -0.6370    12.2860 h4         1 MIM       0.036100
     49 H9B1        -0.3310    -1.0540    10.2400 h1         1 MIM       0.058700
     50 H9B2        -1.5310    -2.0410     9.3890 h1         1 MIM       0.058700
     51 H8B1        -2.2890    -0.0280     8.1080 hc         1 MIM       0.053700
     52 H8B2        -1.1090     0.9700     8.9580 hc         1 MIM       0.053700
     53 H7B1         0.7560    -0.4150     7.9930 hc         1 MIM       0.043700
     54 H7B2        -0.4240    -1.4100     7.1400 hc         1 MIM       0.043700
     55 H6B1        -1.1960     0.6120     5.8610 hc         1 MIM       0.049200
     56 H6B2        -0.0230     1.6020     6.7100 hc         1 MIM       0.049200
     57 H2B         -0.4740    -1.0340     4.1310 ha         1 MIM       0.110500
     58 H1B          1.2500    -1.6460     2.4620 ha         1 MIM       0.111500
     59 H5B          4.1510     0.7630     4.5770 ha         1 MIM       0.111500
     60 H4B          2.4250     1.3730     6.2470 ha         1 MIM       0.110500
     61 HAB1         4.8790    -0.8140     2.8310 hc         1 MIM       0.067200
     62 HAB2         3.6960    -1.8820     2.0210 hc         1 MIM       0.067200
     63 HNS          2.7970    -1.2900     0.1230 hn         1 MIM       0.343500
     64 HAS          2.7350     1.4160    -0.9640 h1         1 MIM       0.087700
     65 HBS1         4.2150     1.0640    -2.9090 h1         1 MIM       0.039200
     66 HBS2         5.1230     0.9640    -1.3960 h1         1 MIM       0.039200
     67 HOGS         5.6900    -0.7570    -2.8060 ho         1 MIM       0.448000
     68 HNK          2.0550     1.3580    -3.3600 hn         1 MIM       0.332500
     69 HAK          0.2730    -0.9250    -4.0710 h1         1 MIM       0.088700
     70 HBK1        -0.7500     1.9610    -3.8170 hc         1 MIM       0.051700
     71 HBK2        -1.6540     0.6190    -4.5030 hc         1 MIM       0.051700
     72 HGK1        -1.5680    -0.5640    -2.2690 hc         1 MIM       0.047200
     73 HGK2        -0.7540     0.8420    -1.5800 hc         1 MIM       0.047200
     74 HDK1        -2.7250     2.2780    -2.1580 hc         1 MIM       0.045700
     75 HDK2        -3.5500     0.8710    -2.8360 hc         1 MIM       0.045700
     76 HEK1        -3.5100    -0.2480    -0.5870 h1         1 MIM       0.028200
     77 HEK2        -2.6830     1.1750     0.0990 h1         1 MIM       0.028200
     78 HNZ1        -4.9970     1.2780     0.5220 hn         1 MIM       0.391500
     79 HNZ2        -4.5670     2.5030    -0.4370 hn         1 MIM       0.391500
     80 HNY         -0.7070    -0.6240    -6.2590 hn         1 MIM       0.317500
     81 HAY1         0.3370     1.1950    -8.2040 h1         1 MIM       0.054700
     82 HAY2         1.2870    -0.3100    -8.2510 h1         1 MIM       0.054700
     83 HBY1        -0.8540    -1.6080    -8.5210 hc         1 MIM       0.043700
     84 HBY2        -1.7590    -0.1050    -8.5690 hc         1 MIM       0.043700
     85 HGY          0.3980    -0.9480   -10.5730 hc         1 MIM       0.048700
     86 HKY1        -1.6310    -2.3770   -10.7650 hc         1 MIM       0.039200
     87 HKY2        -2.6670    -0.9580   -10.8590 hc         1 MIM       0.039200
     88 HHY1        -0.5280    -1.7950   -12.9130 hc         1 MIM       0.039700
     89 HHY2        -2.2730    -1.8690   -13.1370 hc         1 MIM       0.039700
     90 HZY1        -1.2800     0.1590   -14.2580 hc         1 MIM       0.039200
     91 HZY2        -2.4540     0.6100   -13.0240 hc         1 MIM       0.039200
     92 HEY1         0.6120     0.6240   -12.7140 hc         1 MIM       0.039700
     93 HEY2        -0.4300     2.0390   -12.8110 hc         1 MIM       0.039700
     94 HDY1        -1.5150     1.4680   -10.6510 hc         1 MIM       0.039200
     95 HDY2         0.2330     1.5440   -10.4500 hc         1 MIM       0.039200
@<TRIPOS>BOND
     1     1     3 1   
     2     1    44 1   
     3     1    45 1   
     4     1    46 1   
     5     2     3 2   
     6     2     6 1   
     7     3     4 1   
     8     4     5 1   
     9     4     7 1   
    10     5     6 2   
    11     5    47 1   
    12     6    48 1   
    13     7     8 1   
    14     7    49 1   
    15     7    50 1   
    16     8     9 1   
    17     8    51 1   
    18     8    52 1   
    19     9    10 1   
    20     9    53 1   
    21     9    54 1   
    22    10    11 1   
    23    10    55 1   
    24    10    56 1   
    25    11    12 ar  
    26    11    16 ar  
    27    12    13 ar  
    28    12    57 1   
    29    13    14 ar  
    30    13    58 1   
    31    14    15 ar  
    32    14    17 1   
    33    15    16 ar  
    34    15    59 1   
    35    16    60 1   
    36    17    18 1   
    37    17    61 1   
    38    17    62 1   
    39    18    19 2   
    40    18    20 1   
    41    20    21 1   
    42    20    63 1   
    43    21    22 1   
    44    21    24 1   
    45    21    64 1   
    46    22    23 2   
    47    22    26 1   
    48    24    25 1   
    49    24    65 1   
    50    24    66 1   
    51    25    67 1   
    52    26    27 1   
    53    26    68 1   
    54    27    28 1   
    55    27    30 1   
    56    27    69 1   
    57    28    29 2   
    58    28    35 1   
    59    30    31 1   
    60    30    70 1   
    61    30    71 1   
    62    31    32 1   
    63    31    72 1   
    64    31    73 1   
    65    32    33 1   
    66    32    74 1   
    67    32    75 1   
    68    33    34 1   
    69    33    76 1   
    70    33    77 1   
    71    34    78 1   
    72    34    79 1   
    73    35    36 1   
    74    35    80 1   
    75    36    37 1   
    76    36    81 1   
    77    36    82 1   
    78    37    38 1   
    79    37    83 1   
    80    37    84 1   
    81    38    39 1   
    82    38    43 1   
    83    38    85 1   
    84    39    40 1   
    85    39    86 1   
    86    39    87 1   
    87    40    41 1   
    88    40    88 1   
    89    40    89 1   
    90    41    42 1   
    91    41    90 1   
    92    41    91 1   
    93    42    43 1   
    94    42    92 1   
    95    42    93 1   
    96    43    94 1   
    97    43    95 1   
@<TRIPOS>SUBSTRUCTURE
     1 MIM         1 TEMP              0 ****  ****    0 ROOT
