@<TRIPOS>MOLECULE
MIM
   95    97     1     0     0
SMALL
abcg2


@<TRIPOS>ATOM
      1 CIB          2.3130    -0.0160    12.9200 c3         1 MIM      -0.121400
      2 NGB          0.3810     0.6650    14.3390 nc         1 MIM      -0.676000
      3 CBB          0.8690     0.1470    13.2360 cd         1 MIM       0.403800
      4 NAB         -0.1220    -0.2370    12.3960 na         1 MIM      -0.166500
      5 CEB         -1.3110     0.0690    13.0020 cd         1 MIM      -0.234000
      6 CDB         -0.9780     0.6210    14.2030 cc         1 MIM       0.232900
      7 C9B          0.0320    -0.7790    11.0610 c3         1 MIM       0.071600
      8 C8B          0.0470     0.3010     9.9890 c3         1 MIM      -0.099400
      9 C7B          0.2180    -0.2870     8.5950 c3         1 MIM      -0.073400
     10 C6B          0.2280     0.7930     7.5140 c3         1 MIM      -0.029100
     11 C3B          0.4230     0.2310     6.1340 ca         1 MIM      -0.076300
     12 C2B         -0.6630    -0.1700     5.3600 ca         1 MIM      -0.106500
     13 C1B         -0.4800    -0.7060     4.0930 ca         1 MIM      -0.091000
     14 C0B          0.7950    -0.8590     3.5610 ca         1 MIM      -0.068300
     15 C5B          1.8830    -0.4690     4.3360 ca         1 MIM      -0.091000
     16 C4B          1.7000     0.0650     5.6020 ca         1 MIM      -0.106500
     17 CAB          0.9930    -1.3870     2.1720 c3         1 MIM      -0.111100
     18 CB           1.0430    -0.2730     1.1370 c          1 MIM       0.601100
     19 OB           1.2690     0.8900     1.4330 o          1 MIM      -0.603100
     20 NS           0.8470    -0.6810    -0.1270 ns         1 MIM      -0.496900
     21 CAS          0.9190     0.2090    -1.2550 c3         1 MIM       0.037700
     22 CS           0.1230    -0.4010    -2.4090 c          1 MIM       0.609100
     23 OS          -0.2080    -1.5760    -2.4170 o          1 MIM      -0.605100
     24 CBS          2.3540     0.4740    -1.7050 c3         1 MIM       0.141600
     25 OGS          2.8840    -0.7280    -2.2050 oh         1 MIM      -0.657000
     26 NK          -0.1470     0.4670    -3.3930 ns         1 MIM      -0.491900
     27 CAK         -0.7690     0.1200    -4.6460 c3         1 MIM       0.032700
     28 CK           0.0940     0.6640    -5.7830 c          1 MIM       0.586100
     29 OK           0.7360     1.6980    -5.6530 o          1 MIM      -0.613100
     30 CBK         -2.1880     0.6860    -4.7690 c3         1 MIM      -0.086400
     31 CGK         -3.1290     0.1920    -3.6790 c3         1 MIM      -0.074400
     32 CDK         -4.5570     0.6820    -3.8820 c3         1 MIM      -0.079400
     33 CEK         -5.4960     0.2210    -2.7780 c3         1 MIM       0.149800
     34 NZK         -6.8540     0.6880    -3.0180 n8         1 MIM      -0.996200
     35 NY           0.0420    -0.0350    -6.9200 ns         1 MIM      -0.499900
     36 CAY          0.7310     0.3670    -8.1310 c3         1 MIM       0.102000
     37 CBY          0.2280    -0.4350    -9.3210 c3         1 MIM      -0.091400
     38 CGY          0.9940    -0.1510   -10.6110 c6         1 MIM      -0.057700
     39 CKY          0.5780    -1.1320   -11.7090 c6         1 MIM      -0.072400
     40 CHY          1.3240    -0.8800   -13.0150 c6         1 MIM      -0.072900
     41 CZY          1.1390     0.5570   -13.4890 c6         1 MIM      -0.075400
     42 CEY          1.5550     1.5460   -12.4060 c6         1 MIM      -0.072900
     43 CDY          0.8130     1.2880   -11.0980 c6         1 MIM      -0.072400
     44 HIB1         2.9060     0.3230    13.7660 hc         1 MIM       0.052033
     45 HIB2         2.5710    -1.0570    12.7220 hc         1 MIM       0.052033
     46 HIB3         2.6110     0.5670    12.0460 hc         1 MIM       0.052033
     47 HEB         -2.2610    -0.1370    12.5380 h4         1 MIM       0.154000
     48 HDB         -1.6420     0.9820    14.9730 h4         1 MIM       0.036100
     49 H9B1         0.9550    -1.3600    11.0300 h1         1 MIM       0.058700
     50 H9B2        -0.7860    -1.4790    10.8860 h1         1 MIM       0.058700
     51 H8B1        -0.8850     0.8730    10.0380 hc         1 MIM       0.053700
     52 H8B2         0.8590     1.0070    10.1900 hc         1 MIM       0.053700
     53 H7B1         1.1510    -0.8590     8.5470 hc         1 MIM       0.043700
     54 H7B2        -0.5900    -0.9980     8.3920 hc         1 MIM       0.043700
     55 H6B1        -0.7130     1.3500     7.5560 hc         1 MIM       0.049200
     56 H6B2         1.0230     1.5110     7.7310 hc         1 MIM       0.049200
     57 H2B         -1.6690    -0.0530     5.7490 ha         1 MIM       0.110500
     58 H1B         -1.3450    -1.0020     3.5100 ha         1 MIM       0.111500
     59 H5B          2.8870    -0.5840     3.9460 ha         1 MIM       0.111500
     60 H4B          2.5650     0.3660     6.1820 ha         1 MIM       0.110500
     61 HAB1         1.9380    -1.9360     2.1040 hc         1 MIM       0.067200
     62 HAB2         0.2090    -2.1020     1.9120 hc         1 MIM       0.067200
     63 HNS          0.6580    -1.6540    -0.3160 hn         1 MIM       0.343500
     64 HAS          0.4740     1.1700    -0.9850 h1         1 MIM       0.087700
     65 HBS1         2.3500     1.2690    -2.4610 h1         1 MIM       0.039200
     66 HBS2         2.9230     0.8540    -0.8500 h1         1 MIM       0.039200
     67 HOGS         3.7860    -0.5630    -2.4940 ho         1 MIM       0.448000
     68 HNK          0.1490     1.4260    -3.2910 hn         1 MIM       0.332500
     69 HAK         -0.8180    -0.9690    -4.7020 h1         1 MIM       0.088700
     70 HBK1        -2.1440     1.7800    -4.7540 hc         1 MIM       0.051700
     71 HBK2        -2.5810     0.4040    -5.7500 hc         1 MIM       0.051700
     72 HGK1        -3.1170    -0.9020    -3.6550 hc         1 MIM       0.047200
     73 HGK2        -2.7660     0.5270    -2.7030 hc         1 MIM       0.047200
     74 HDK1        -4.5640     1.7780    -3.9280 hc         1 MIM       0.045700
     75 HDK2        -4.9390     0.3310    -4.8460 hc         1 MIM       0.045700
     76 HEK1        -5.5090    -0.8730    -2.7570 h1         1 MIM       0.028200
     77 HEK2        -5.0880     0.5400    -1.8080 h1         1 MIM       0.028200
     78 HNZ1        -7.4620     0.3460    -2.2850 hn         1 MIM       0.391500
     79 HNZ2        -6.8770     1.6980    -2.9360 hn         1 MIM       0.391500
     80 HNY         -0.4560    -0.9110    -6.9280 hn         1 MIM       0.317500
     81 HAY1         0.5690     1.4350    -8.2860 h1         1 MIM       0.054700
     82 HAY2         1.8110     0.2220    -8.0170 h1         1 MIM       0.054700
     83 HBY1         0.3170    -1.5030    -9.0890 hc         1 MIM       0.043700
     84 HBY2        -0.8380    -0.2350    -9.4740 hc         1 MIM       0.043700
     85 HGY          2.0630    -0.3100   -10.4150 hc         1 MIM       0.048700
     86 HKY1         0.7490    -2.1580   -11.3700 hc         1 MIM       0.039200
     87 HKY2        -0.5010    -1.0370   -11.8830 hc         1 MIM       0.039200
     88 HHY1         2.3920    -1.0740   -12.8620 hc         1 MIM       0.039700
     89 HHY2         0.9870    -1.5810   -13.7820 hc         1 MIM       0.039700
     90 HZY1         1.7110     0.7340   -14.4040 hc         1 MIM       0.039200
     91 HZY2         0.0860     0.7220   -13.7430 hc         1 MIM       0.039200
     92 HEY1         2.6330     1.4570   -12.2310 hc         1 MIM       0.039700
     93 HEY2         1.3790     2.5720   -12.7390 hc         1 MIM       0.039700
     94 HDY1        -0.2580     1.4770   -11.2450 hc         1 MIM       0.039200
     95 HDY2         1.1520     1.9980   -10.3400 hc         1 MIM       0.039200
@<TRIPOS>BOND
     1     1     3 1   
     2     1    44 1   
     3     1    45 1   
     4     1    46 1   
     5     2     3 2   
     6     2     6 1   
     7     3     4 1   
     8     4     5 1   
     9     4     7 1   
    10     5     6 2   
    11     5    47 1   
    12     6    48 1   
    13     7     8 1   
    14     7    49 1   
    15     7    50 1   
    16     8     9 1   
    17     8    51 1   
    18     8    52 1   
    19     9    10 1   
    20     9    53 1   
    21     9    54 1   
    22    10    11 1   
    23    10    55 1   
    24    10    56 1   
    25    11    12 ar  
    26    11    16 ar  
    27    12    13 ar  
    28    12    57 1   
    29    13    14 ar  
    30    13    58 1   
    31    14    15 ar  
    32    14    17 1   
    33    15    16 ar  
    34    15    59 1   
    35    16    60 1   
    36    17    18 1   
    37    17    61 1   
    38    17    62 1   
    39    18    19 2   
    40    18    20 1   
    41    20    21 1   
    42    20    63 1   
    43    21    22 1   
    44    21    24 1   
    45    21    64 1   
    46    22    23 2   
    47    22    26 1   
    48    24    25 1   
    49    24    65 1   
    50    24    66 1   
    51    25    67 1   
    52    26    27 1   
    53    26    68 1   
    54    27    28 1   
    55    27    30 1   
    56    27    69 1   
    57    28    29 2   
    58    28    35 1   
    59    30    31 1   
    60    30    70 1   
    61    30    71 1   
    62    31    32 1   
    63    31    72 1   
    64    31    73 1   
    65    32    33 1   
    66    32    74 1   
    67    32    75 1   
    68    33    34 1   
    69    33    76 1   
    70    33    77 1   
    71    34    78 1   
    72    34    79 1   
    73    35    36 1   
    74    35    80 1   
    75    36    37 1   
    76    36    81 1   
    77    36    82 1   
    78    37    38 1   
    79    37    83 1   
    80    37    84 1   
    81    38    39 1   
    82    38    43 1   
    83    38    85 1   
    84    39    40 1   
    85    39    86 1   
    86    39    87 1   
    87    40    41 1   
    88    40    88 1   
    89    40    89 1   
    90    41    42 1   
    91    41    90 1   
    92    41    91 1   
    93    42    43 1   
    94    42    92 1   
    95    42    93 1   
    96    43    94 1   
    97    43    95 1   
@<TRIPOS>SUBSTRUCTURE
     1 MIM         1 TEMP              0 ****  ****    0 ROOT
