@<TRIPOS>MOLECULE
MIN
   62    64     1     0     0
SMALL
abcg2


@<TRIPOS>ATOM
      1 N13         -3.1410    -1.7060     0.7180 n7         1 MIN      -0.847400
      2 C15         -2.9410    -0.3690     0.2250 c3         1 MIN       0.111500
      3 C13         -1.4640    -0.0470    -0.0300 c          1 MIN       0.569100
      4 O13         -0.6960    -0.9180    -0.4220 o          1 MIN      -0.619100
      5 C16         -3.7030    -0.1600    -1.0950 c3         1 MIN      -0.025100
      6 C17         -5.1890    -0.2690    -0.9210 ca         1 MIN      -0.068300
      7 C18         -5.9280     0.8330    -0.4970 ca         1 MIN      -0.098500
      8 C22         -5.8590    -1.4670    -1.1530 ca         1 MIN      -0.098500
      9 C19         -7.3010     0.7440    -0.3100 ca         1 MIN      -0.110500
     10 C21         -7.2320    -1.5610    -0.9740 ca         1 MIN      -0.110500
     11 C20         -7.9580    -0.4560    -0.5490 ca         1 MIN      -0.110000
     12 C14         -2.6150    -1.9210     2.0520 c3         1 MIN       0.141100
     13 N9          -1.0530     1.2160     0.1470 n          1 MIN      -0.396800
     14 C9           0.3400     1.5600    -0.0750 c5         1 MIN       0.028700
     15 C8           1.2550     0.7160     0.8030 c          1 MIN       0.601100
     16 O8           0.9800     0.4820     1.9700 o          1 MIN      -0.602100
     17 C10          0.4120     3.0440     0.3140 c5         1 MIN      -0.085400
     18 C11         -1.0140     3.5400     0.1050 c5         1 MIN      -0.094400
     19 C12         -1.8560     2.3600     0.5650 c5         1 MIN       0.108000
     20 N7           2.3980     0.3330     0.2240 ns         1 MIN      -0.493900
     21 C7           3.4030    -0.4490     0.9130 c3         1 MIN       0.106000
     22 C4           4.6510    -0.6310     0.0590 c6         1 MIN      -0.080700
     23 C5           5.3430     0.6940    -0.2620 c6         1 MIN      -0.069900
     24 C6           6.6120     0.4760    -1.0800 c6         1 MIN      -0.074900
     25 C1           7.5830    -0.4590    -0.3690 c6         1 MIN       0.162500
     26 C2           6.8950    -1.7840    -0.0620 c6         1 MIN      -0.074900
     27 C3           5.6260    -1.5780     0.7570 c6         1 MIN      -0.069900
     28 N1           8.7540    -0.6860    -1.2060 n8         1 MIN      -0.998200
     29 HN3         -2.7210    -2.3670     0.0760 hn         1 MIN       0.426000
     30 H15         -3.3500     0.3170     0.9740 h1         1 MIN       0.073700
     31 H161        -3.4530     0.8230    -1.5040 hc         1 MIN       0.053200
     32 H162        -3.3490    -0.8950    -1.8230 hc         1 MIN       0.053200
     33 H18         -5.4230     1.7760    -0.3150 ha         1 MIN       0.107500
     34 H22         -5.3030    -2.3340    -1.4880 ha         1 MIN       0.107500
     35 H19         -7.8570     1.6140     0.0170 ha         1 MIN       0.110000
     36 H21         -7.7370    -2.4990    -1.1660 ha         1 MIN       0.110000
     37 H20         -9.0290    -0.5270    -0.4110 ha         1 MIN       0.110000
     38 H141        -2.7700    -2.9610     2.3380 h1         1 MIN       0.037033
     39 H142        -1.5460    -1.7000     2.1700 h1         1 MIN       0.037033
     40 H143        -3.1600    -1.3020     2.7680 h1         1 MIN       0.037033
     41 H9           0.5960     1.4300    -1.1320 h1         1 MIN       0.063700
     42 H101         0.6900     3.1460     1.3650 hc         1 MIN       0.063200
     43 H102         1.1500     3.5800    -0.2810 hc         1 MIN       0.063200
     44 H111        -1.2360     4.4480     0.6630 hc         1 MIN       0.056200
     45 H112        -1.2000     3.7380    -0.9520 hc         1 MIN       0.056200
     46 H121        -1.9930     2.3670     1.6500 h1         1 MIN       0.052700
     47 H122        -2.8410     2.3540     0.0990 h1         1 MIN       0.052700
     48 HN7          2.5000     0.4650    -0.7690 hn         1 MIN       0.314500
     49 H71          2.9970    -1.4310     1.1790 h1         1 MIN       0.052700
     50 H72          3.6680     0.0480     1.8510 h1         1 MIN       0.052700
     51 H4           4.3510    -1.1010    -0.8880 hc         1 MIN       0.052700
     52 H51          4.6710     1.3650    -0.8030 hc         1 MIN       0.041700
     53 H52          5.5960     1.2010     0.6770 hc         1 MIN       0.041700
     54 H61          7.0960     1.4360    -1.2800 hc         1 MIN       0.047450
     55 H62          6.3550     0.0440    -2.0540 hc         1 MIN       0.047450
     56 H1           7.8430     0.0090     0.5960 h1         1 MIN       0.013700
     57 H21A         6.6500    -2.2830    -1.0060 hc         1 MIN       0.047450
     58 H22A         7.5820    -2.4450     0.4760 hc         1 MIN       0.047450
     59 H31          5.1420    -2.5400     0.9430 hc         1 MIN       0.041700
     60 H32          5.8850    -1.1670     1.7400 hc         1 MIN       0.041700
     61 HN11         9.2380     0.1930    -1.3500 hn         1 MIN       0.393000
     62 HN12         9.4120    -1.2780    -0.7130 hn         1 MIN       0.393000
@<TRIPOS>BOND
     1     1     2 1   
     2     1    12 1   
     3     1    29 1   
     4     2     3 1   
     5     2     5 1   
     6     2    30 1   
     7     3     4 2   
     8     3    13 1   
     9     5     6 1   
    10     5    31 1   
    11     5    32 1   
    12     6     7 ar  
    13     6     8 ar  
    14     7     9 ar  
    15     7    33 1   
    16     8    10 ar  
    17     8    34 1   
    18     9    11 ar  
    19     9    35 1   
    20    10    11 ar  
    21    10    36 1   
    22    11    37 1   
    23    12    38 1   
    24    12    39 1   
    25    12    40 1   
    26    13    14 1   
    27    13    19 1   
    28    14    15 1   
    29    14    17 1   
    30    14    41 1   
    31    15    16 2   
    32    15    20 1   
    33    17    18 1   
    34    17    42 1   
    35    17    43 1   
    36    18    19 1   
    37    18    44 1   
    38    18    45 1   
    39    19    46 1   
    40    19    47 1   
    41    20    21 1   
    42    20    48 1   
    43    21    22 1   
    44    21    49 1   
    45    21    50 1   
    46    22    23 1   
    47    22    27 1   
    48    22    51 1   
    49    23    24 1   
    50    23    52 1   
    51    23    53 1   
    52    24    25 1   
    53    24    54 1   
    54    24    55 1   
    55    25    26 1   
    56    25    28 1   
    57    25    56 1   
    58    26    27 1   
    59    26    57 1   
    60    26    58 1   
    61    27    59 1   
    62    27    60 1   
    63    28    61 1   
    64    28    62 1   
@<TRIPOS>SUBSTRUCTURE
     1 MIN         1 TEMP              0 ****  ****    0 ROOT
