@<TRIPOS>MOLECULE
MIN
   62    64     1     0     0
SMALL
No Charge or Current Charge


@<TRIPOS>ATOM
      1 N13         -3.3980    -1.4900     1.4250 n7         1 MIN      -0.847400
      2 C15         -3.0810    -0.5390     0.3060 c3         1 MIN       0.111500
      3 C13         -1.6920    -0.8130    -0.3830 c          1 MIN       0.569100
      4 O13         -1.2710    -1.9580    -0.5280 o          1 MIN      -0.619100
      5 C16         -4.2160    -0.5690    -0.7520 c3         1 MIN      -0.025100
      6 C17         -5.5300     0.0200    -0.2450 ca         1 MIN      -0.068300
      7 C18         -5.6740     1.4160    -0.1100 ca         1 MIN      -0.098500
      8 C22         -6.6120    -0.8200     0.0830 ca         1 MIN      -0.098500
      9 C19         -6.8850     1.9630     0.3490 ca         1 MIN      -0.110500
     10 C21         -7.8230    -0.2720     0.5420 ca         1 MIN      -0.110500
     11 C20         -7.9590     1.1190     0.6760 ca         1 MIN      -0.110000
     12 C14         -2.5490    -1.3600     2.6270 c3         1 MIN       0.141100
     13 N9          -0.9150     0.2870    -0.8170 n          1 MIN      -0.396800
     14 C9           0.4670     0.1310    -1.3570 c5         1 MIN       0.028700
     15 C8           1.4840    -0.5840    -0.4080 c          1 MIN       0.601100
     16 O8           1.4050    -0.7170     0.8080 o          1 MIN      -0.602100
     17 C10          0.9090     1.6190    -1.5060 c5         1 MIN      -0.085400
     18 C11         -0.4190     2.3150    -1.8850 c5         1 MIN      -0.094400
     19 C12         -1.4070     1.6810    -0.8750 c5         1 MIN       0.108000
     20 N7           2.5420    -1.0600    -1.1570 ns         1 MIN      -0.493900
     21 C7           3.7270    -1.7220    -0.6030 c3         1 MIN       0.106000
     22 C4           4.9520    -0.7710    -0.4690 c6         1 MIN      -0.080700
     23 C5           4.6760     0.4390     0.4730 c6         1 MIN      -0.069900
     24 C6           5.9180     1.3570     0.6020 c6         1 MIN      -0.074900
     25 C1           7.1580     0.5620     1.0820 c6         1 MIN       0.162500
     26 C2           7.4450    -0.6320     0.1380 c6         1 MIN      -0.074900
     27 C3           6.2060    -1.5550     0.0120 c6         1 MIN      -0.069900
     28 N1           8.3350     1.4430     1.1780 n8         1 MIN      -0.998200
     29 HN3         -3.2860    -2.4460     1.0600 hn         1 MIN       0.426000
     30 H15         -3.0410     0.4790     0.7140 h1         1 MIN       0.073700
     31 H161        -3.8940    -0.0070    -1.6370 hc         1 MIN       0.053200
     32 H162        -4.3600    -1.6000    -1.0970 hc         1 MIN       0.053200
     33 H18         -4.8490     2.0780    -0.3630 ha         1 MIN       0.107500
     34 H22         -6.5150    -1.8990    -0.0150 ha         1 MIN       0.107500
     35 H19         -6.9890     3.0410     0.4510 ha         1 MIN       0.110000
     36 H21         -8.6540    -0.9270     0.7950 ha         1 MIN       0.110000
     37 H20         -8.8960     1.5430     1.0320 ha         1 MIN       0.110000
     38 H141        -2.8540    -2.0830     3.3960 h1         1 MIN       0.037033
     39 H142        -1.4930    -1.5460     2.3890 h1         1 MIN       0.037033
     40 H143        -2.6310    -0.3530     3.0570 h1         1 MIN       0.037033
     41 H9           0.4390    -0.3850    -2.3260 h1         1 MIN       0.063700
     42 H101         1.3000     2.0200    -0.5630 hc         1 MIN       0.063200
     43 H102         1.6890     1.7520    -2.2640 hc         1 MIN       0.063200
     44 H111        -0.3700     3.4060    -1.7940 hc         1 MIN       0.056200
     45 H112        -0.7080     2.0830    -2.9170 hc         1 MIN       0.056200
     46 H121        -1.3360     2.1580     0.1120 h1         1 MIN       0.052700
     47 H122        -2.4430     1.7570    -1.2280 h1         1 MIN       0.052700
     48 HN7          2.5060    -0.8990    -2.1560 hn         1 MIN       0.314500
     49 H71          3.9940    -2.5530    -1.2690 h1         1 MIN       0.052700
     50 H72          3.4880    -2.1480     0.3800 h1         1 MIN       0.052700
     51 H4           5.1540    -0.3860    -1.4790 hc         1 MIN       0.052700
     52 H51          3.8340     1.0330     0.0940 hc         1 MIN       0.041700
     53 H52          4.3810     0.0770     1.4680 hc         1 MIN       0.041700
     54 H61          5.6970     2.1720     1.3050 hc         1 MIN       0.047450
     55 H62          6.1270     1.8280    -0.3680 hc         1 MIN       0.047450
     56 H1           6.9620     0.1750     2.0940 h1         1 MIN       0.013700
     57 H21A         7.7300    -0.2640    -0.8580 hc         1 MIN       0.047450
     58 H22A         8.2970    -1.2140     0.5130 hc         1 MIN       0.047450
     59 H31          6.4290    -2.3710    -0.6890 hc         1 MIN       0.041700
     60 H32          6.0010    -2.0270     0.9830 hc         1 MIN       0.041700
     61 HN11         8.1460     2.1660     1.8810 hn         1 MIN       0.393000
     62 HN12         9.1110     0.9090     1.5880 hn         1 MIN       0.393000
@<TRIPOS>BOND
     1     1     2 1   
     2     1    12 1   
     3     1    29 1   
     4     2     3 1   
     5     2     5 1   
     6     2    30 1   
     7     3     4 2   
     8     3    13 1   
     9     5     6 1   
    10     5    31 1   
    11     5    32 1   
    12     6     7 ar  
    13     6     8 ar  
    14     7     9 ar  
    15     7    33 1   
    16     8    10 ar  
    17     8    34 1   
    18     9    11 ar  
    19     9    35 1   
    20    10    11 ar  
    21    10    36 1   
    22    11    37 1   
    23    12    38 1   
    24    12    39 1   
    25    12    40 1   
    26    13    14 1   
    27    13    19 1   
    28    14    15 1   
    29    14    17 1   
    30    14    41 1   
    31    15    16 2   
    32    15    20 1   
    33    17    18 1   
    34    17    42 1   
    35    17    43 1   
    36    18    19 1   
    37    18    44 1   
    38    18    45 1   
    39    19    46 1   
    40    19    47 1   
    41    20    21 1   
    42    20    48 1   
    43    21    22 1   
    44    21    49 1   
    45    21    50 1   
    46    22    23 1   
    47    22    27 1   
    48    22    51 1   
    49    23    24 1   
    50    23    52 1   
    51    23    53 1   
    52    24    25 1   
    53    24    54 1   
    54    24    55 1   
    55    25    26 1   
    56    25    28 1   
    57    25    56 1   
    58    26    27 1   
    59    26    57 1   
    60    26    58 1   
    61    27    59 1   
    62    27    60 1   
    63    28    61 1   
    64    28    62 1   
@<TRIPOS>SUBSTRUCTURE
     1 MIN         1 TEMP              0 ****  ****    0 ROOT
