@<TRIPOS>MOLECULE
MIO
   13    13     1     0     0
SMALL
abcg2


@<TRIPOS>ATOM
      1 CAA          2.5430     0.4910    -0.0050 c3         1 MIO      -0.135400
      2 NAB         -2.4110     0.4790     0.2170 nv         1 MIO      -1.036900
      3 CAC          0.0100     1.0650     0.1420 cc         1 MIO      -0.344000
      4 NAD          0.6880    -1.0670    -0.1270 nd         1 MIO      -0.385300
      5 OAE         -0.6960    -1.0130    -0.0710 os         1 MIO      -0.110700
      6 CAF          1.0920     0.1660     0.0030 cc         1 MIO       0.313300
      7 CAG         -1.0860     0.2500     0.0860 cd         1 MIO       0.424900
      8 HAA          2.8450     0.9150     0.9530 hc         1 MIO       0.055033
      9 HAAA         3.1450    -0.3960    -0.1930 hc         1 MIO       0.055033
     10 HAAB         2.7670     1.2310    -0.7730 hc         1 MIO       0.055033
     11 HNAB        -2.7080     1.4310     0.0770 hn         1 MIO       0.479000
     12 HNAA        -3.0400    -0.2000    -0.1830 hn         1 MIO       0.479000
     13 HAC          0.0400     2.1350     0.2560 ha         1 MIO       0.150000
@<TRIPOS>BOND
     1     1     6 1   
     2     1     8 1   
     3     1     9 1   
     4     1    10 1   
     5     2     7 1   
     6     2    11 1   
     7     2    12 1   
     8     3     6 1   
     9     3     7 2   
    10     3    13 1   
    11     4     5 1   
    12     4     6 2   
    13     5     7 1   
@<TRIPOS>SUBSTRUCTURE
     1 MIO         1 TEMP              0 ****  ****    0 ROOT
