@<TRIPOS>MOLECULE
MIO
   13    13     1     0     0
SMALL
No Charge or Current Charge


@<TRIPOS>ATOM
      1 CAA          2.5210     0.5370     0.0020 c3         1 MIO      -0.135400
      2 NAB         -2.3830     0.5490     0.1660 nv         1 MIO      -1.036900
      3 CAC          0.0180     0.9770     0.1440 cc         1 MIO      -0.344000
      4 NAD          0.7150    -1.1760    -0.1670 nd         1 MIO      -0.385300
      5 OAE         -0.7270    -1.1070    -0.1090 os         1 MIO      -0.110700
      6 CAF          1.0910     0.0850    -0.0110 cc         1 MIO       0.313300
      7 CAG         -1.0760     0.2010     0.0770 cd         1 MIO       0.424900
      8 HAA          2.7630     1.0250     0.9520 hc         1 MIO       0.055033
      9 HAAA         3.2070    -0.3080    -0.1300 hc         1 MIO       0.055033
     10 HAAB         2.7070     1.2530    -0.8070 hc         1 MIO       0.055033
     11 HNAB        -2.6330     1.5320     0.0870 hn         1 MIO       0.479000
     12 HNAA        -3.0910    -0.1290    -0.1080 hn         1 MIO       0.479000
     13 HAC          0.0780     2.0480     0.2860 ha         1 MIO       0.150000
@<TRIPOS>BOND
     1     1     6 1   
     2     1     8 1   
     3     1     9 1   
     4     1    10 1   
     5     2     7 1   
     6     2    11 1   
     7     2    12 1   
     8     3     6 1   
     9     3     7 2   
    10     3    13 1   
    11     4     5 1   
    12     4     6 2   
    13     5     7 1   
@<TRIPOS>SUBSTRUCTURE
     1 MIO         1 TEMP              0 ****  ****    0 ROOT
