@<TRIPOS>MOLECULE
MIQ
   42    45     1     0     0
SMALL
No Charge or Current Charge


@<TRIPOS>ATOM
      1 O1         144.2180   152.3260    89.9540 o          1 MIQ      -0.496000
      2 C2         143.2250   151.6140    89.9710 c          1 MIQ       0.586600
      3 C3         142.2070   151.4490    88.8920 ca         1 MIQ      -0.085600
      4 C4         142.1210   152.0470    87.6270 ca         1 MIQ      -0.138000
      5 C5         141.0360   151.7050    86.7870 ca         1 MIQ       0.374000
      6 C7         140.2110   151.5930    84.3650 c6         1 MIQ       0.189300
      7 C8         140.7700   152.0600    82.9860 c6         1 MIQ       0.145100
      8 C10        140.7050   154.3090    83.9980 c6         1 MIQ       0.145100
      9 C11        141.4890   153.6350    85.1650 c6         1 MIQ       0.189300
     10 C12        140.0680   150.7750    87.2450 ca         1 MIQ      -0.203000
     11 C13        140.1660   150.1820    88.5220 ca         1 MIQ       0.015000
     12 C14        141.2540   150.5420    89.3250 ca         1 MIQ      -0.220600
     13 C15        141.6220   150.0940    90.6950 c          1 MIQ       0.606600
     14 C18        143.5040   150.6310    92.3200 c6         1 MIQ       0.041700
     15 C19        144.0530   151.9720    92.8920 c          1 MIQ       0.577000
     16 C21        146.3920   151.2350    92.7210 c          1 MIQ       0.588000
     17 C22        145.9700   150.0100    91.9030 c6         1 MIQ      -0.163400
     18 C23        144.5610   149.4910    92.2770 c6         1 MIQ      -0.087400
     19 N17        142.8090   150.7650    91.0040 n          1 MIQ      -0.396400
     20 N20        145.3890   152.0400    93.1780 ns         1 MIQ      -0.468500
     21 N6         140.9130   152.2870    85.4990 nh         1 MIQ      -0.826400
     22 O16        141.0170   149.3060    91.4060 o          1 MIQ      -0.489000
     23 O24        147.5560   151.4540    93.0120 o          1 MIQ      -0.514000
     24 O25        143.3210   152.9200    93.1320 o          1 MIQ      -0.505000
     25 O9         140.6730   153.5000    82.7870 os         1 MIQ      -0.448000
     26 H12        142.8850   152.7470    87.3020 ha         1 MIQ       0.138000
     27 H01        140.3500   150.5040    84.4390 h1         1 MIQ       0.058450
     28 H03        141.8280   151.7700    82.9180 h1         1 MIQ       0.055700
     29 H04        140.2360   151.5500    82.1720 h1         1 MIQ       0.055700
     30 H06        139.6710   154.4860    84.3240 h1         1 MIQ       0.055700
     31 H05        141.1490   155.2860    83.7620 h1         1 MIQ       0.055700
     32 H08        142.5480   153.5410    84.8840 h1         1 MIQ       0.058450
     33 H07        141.4370   154.2990    86.0400 h1         1 MIQ       0.058450
     34 H09        139.2230   150.5140    86.6160 ha         1 MIQ       0.121000
     35 H10        139.4200   149.4710    88.8720 ha         1 MIQ       0.134000
     36 H11        142.7470   150.3300    93.0580 h1         1 MIQ       0.104700
     37 H14        145.9220   150.3480    90.8600 hc         1 MIQ       0.083700
     38 H15        146.7470   149.2370    91.9560 hc         1 MIQ       0.083700
     39 H16        144.6180   149.0320    93.2750 hc         1 MIQ       0.066700
     40 H17        144.2460   148.6890    91.5950 hc         1 MIQ       0.066700
     41 H13        145.6890   152.8710    93.6630 hn         1 MIQ       0.330500
     42 H02        139.1300   151.7910    84.4040 h1         1 MIQ       0.058450
@<TRIPOS>BOND
     1     1     2 2   
     2     2     3 1   
     3     2    19 1   
     4     3     4 ar  
     5     3    12 ar  
     6     4     5 ar  
     7     4    26 1   
     8     5    10 ar  
     9     5    21 1   
    10     6     7 1   
    11     6    21 1   
    12     6    27 1   
    13     6    42 1   
    14     7    25 1   
    15     7    28 1   
    16     7    29 1   
    17     8     9 1   
    18     8    25 1   
    19     8    30 1   
    20     8    31 1   
    21     9    21 1   
    22     9    32 1   
    23     9    33 1   
    24    10    11 ar  
    25    10    34 1   
    26    11    12 ar  
    27    11    35 1   
    28    12    13 1   
    29    13    19 1   
    30    13    22 2   
    31    14    15 1   
    32    14    18 1   
    33    14    19 1   
    34    14    36 1   
    35    15    20 1   
    36    15    24 2   
    37    16    17 1   
    38    16    20 1   
    39    16    23 2   
    40    17    18 1   
    41    17    37 1   
    42    17    38 1   
    43    18    39 1   
    44    18    40 1   
    45    20    41 1   
@<TRIPOS>SUBSTRUCTURE
     1 MIQ         1 TEMP              0 ****  ****    0 ROOT
