@<TRIPOS>MOLECULE
MIQ
   42    45     1     0     0
SMALL
abcg2


@<TRIPOS>ATOM
      1 O1         144.0600   152.3910    90.0920 o          1 MIQ      -0.496000
      2 C2         143.1310   151.6250    90.0260 c          1 MIQ       0.586600
      3 C3         142.1600   151.4350    88.9210 ca         1 MIQ      -0.085600
      4 C4         142.1110   152.0630    87.7050 ca         1 MIQ      -0.138000
      5 C5         141.0820   151.6900    86.8040 ca         1 MIQ       0.374000
      6 C7         140.1130   151.7380    84.5490 c6         1 MIQ       0.189300
      7 C8         140.6550   152.1100    83.1820 c6         1 MIQ       0.145100
      8 C10        141.0330   154.2340    84.1580 c6         1 MIQ       0.145100
      9 C11        141.7680   153.4350    85.2180 c6         1 MIQ       0.189300
     10 C12        140.1590   150.6960    87.2150 ca         1 MIQ      -0.203000
     11 C13        140.2450   150.0780    88.4500 ca         1 MIQ       0.015000
     12 C14        141.2610   150.4540    89.3100 ca         1 MIQ      -0.220600
     13 C15        141.6250   149.9910    90.6490 c          1 MIQ       0.606600
     14 C18        143.4310   150.5580    92.2830 c6         1 MIQ       0.041700
     15 C19        143.8550   151.9150    92.8340 c          1 MIQ       0.577000
     16 C21        146.2350   151.4260    92.3720 c          1 MIQ       0.588000
     17 C22        145.8490   150.1510    91.6790 c6         1 MIQ      -0.163400
     18 C23        144.5750   149.5540    92.2460 c6         1 MIQ      -0.087400
     19 N17        142.7580   150.7350    91.0150 n          1 MIQ      -0.396400
     20 N20        145.2030   152.1320    92.9650 ns         1 MIQ      -0.468500
     21 N6         140.9860   152.2670    85.5830 nh         1 MIQ      -0.826400
     22 O16        141.1130   149.1520    91.3460 o          1 MIQ      -0.489000
     23 O24        147.3650   151.8490    92.4300 o          1 MIQ      -0.514000
     24 O25        143.0470   152.7370    93.1920 o          1 MIQ      -0.505000
     25 O9         140.7640   153.5010    82.9820 os         1 MIQ      -0.448000
     26 H12        142.8600   152.7970    87.4440 ha         1 MIQ       0.138000
     27 H01        140.0870   150.6470    84.5990 h1         1 MIQ       0.058450
     28 H03        141.6290   151.6230    83.0450 h1         1 MIQ       0.055700
     29 H04        139.9840   151.7140    82.4180 h1         1 MIQ       0.055700
     30 H06        140.1010   154.6170    84.5920 h1         1 MIQ       0.055700
     31 H05        141.6420   155.0980    83.8850 h1         1 MIQ       0.055700
     32 H08        142.7710   153.1570    84.8720 h1         1 MIQ       0.058450
     33 H07        141.8930   154.0910    86.0810 h1         1 MIQ       0.058450
     34 H09        139.3450   150.4130    86.5640 ha         1 MIQ       0.121000
     35 H10        139.5180   149.3260    88.7250 ha         1 MIQ       0.134000
     36 H11        142.6720   150.1930    92.9790 h1         1 MIQ       0.104700
     37 H14        145.7510   150.3650    90.6110 hc         1 MIQ       0.083700
     38 H15        146.6820   149.4540    91.7740 hc         1 MIQ       0.083700
     39 H16        144.7560   149.2140    93.2680 hc         1 MIQ       0.066700
     40 H17        144.2730   148.6760    91.6750 hc         1 MIQ       0.066700
     41 H13        145.4650   153.0130    93.3960 hn         1 MIQ       0.330500
     42 H02        139.0830   152.0930    84.6700 h1         1 MIQ       0.058450
@<TRIPOS>BOND
     1     1     2 2   
     2     2     3 1   
     3     2    19 1   
     4     3     4 ar  
     5     3    12 ar  
     6     4     5 ar  
     7     4    26 1   
     8     5    10 ar  
     9     5    21 1   
    10     6     7 1   
    11     6    21 1   
    12     6    27 1   
    13     6    42 1   
    14     7    25 1   
    15     7    28 1   
    16     7    29 1   
    17     8     9 1   
    18     8    25 1   
    19     8    30 1   
    20     8    31 1   
    21     9    21 1   
    22     9    32 1   
    23     9    33 1   
    24    10    11 ar  
    25    10    34 1   
    26    11    12 ar  
    27    11    35 1   
    28    12    13 1   
    29    13    19 1   
    30    13    22 2   
    31    14    15 1   
    32    14    18 1   
    33    14    19 1   
    34    14    36 1   
    35    15    20 1   
    36    15    24 2   
    37    16    17 1   
    38    16    20 1   
    39    16    23 2   
    40    17    18 1   
    41    17    37 1   
    42    17    38 1   
    43    18    39 1   
    44    18    40 1   
    45    20    41 1   
@<TRIPOS>SUBSTRUCTURE
     1 MIQ         1 TEMP              0 ****  ****    0 ROOT
