@<TRIPOS>MOLECULE
MIR
   23    22     1     0     0
SMALL
abcg2


@<TRIPOS>ATOM
      1 N           52.1700    48.5080    -2.0390 n8         1 MIR      -0.986200
      2 CA          53.1210    48.4000    -3.1340 c3         1 MIR      -0.006500
      3 CB          54.1700    49.5130    -3.1930 c3         1 MIR       0.230600
      4 OG          55.2020    49.3310    -2.2370 os         1 MIR      -0.606400
      5 P           55.3040    50.2520    -0.8770 p5         1 MIR       1.415800
      6 O1P         54.0470    50.1300    -0.0660 o          1 MIR      -0.850000
      7 O2P         55.8570    51.6000    -1.2200 o          1 MIR      -0.850000
      8 O3P         56.5170    49.4080    -0.1730 os         1 MIR      -0.600400
      9 C1          56.2460    48.1180     0.3590 c3         1 MIR       0.218600
     10 C2          57.5370    47.3330     0.4440 c3         1 MIR      -0.086100
     11 C           53.8410    47.0280    -3.1500 c          1 MIR       0.749000
     12 O           54.4760    46.7700    -4.1920 o          1 MIR      -0.751000
     13 OXT         53.7480    46.3130    -2.1340 o          1 MIR      -0.751000
     14 HN          52.6790    48.4810    -1.1640 hn         1 MIR       0.383000
     15 HNA         51.7530    49.4310    -2.0660 hn         1 MIR       0.383000
     16 HA          52.5530    48.4820    -4.0690 h1         1 MIR       0.012700
     17 HB          54.6410    49.5140    -4.1800 h1         1 MIR      -0.005800
     18 HBA         53.6770    50.4870    -3.0790 h1         1 MIR      -0.005800
     19 H1          55.7980    48.2090     1.3540 h1         1 MIR       0.034200
     20 H1A         55.5310    47.5720    -0.2630 h1         1 MIR       0.034200
     21 H2          57.9770    47.1860    -0.5430 hc         1 MIR       0.013033
     22 H2A         58.2710    47.8340     1.0770 hc         1 MIR       0.013033
     23 H2B         57.3440    46.3490     0.8730 hc         1 MIR       0.013033
@<TRIPOS>BOND
     1     1     2 1   
     2     1    14 1   
     3     1    15 1   
     4     2     3 1   
     5     2    11 1   
     6     2    16 1   
     7     3     4 1   
     8     3    17 1   
     9     3    18 1   
    10     4     5 1   
    11     5     6 1   
    12     5     7 1   
    13     5     8 1   
    14     8     9 1   
    15     9    10 1   
    16     9    19 1   
    17     9    20 1   
    18    10    21 1   
    19    10    22 1   
    20    10    23 1   
    21    11    12 1   
    22    11    13 1   
@<TRIPOS>SUBSTRUCTURE
     1 MIR         1 TEMP              0 ****  ****    0 ROOT
