@<TRIPOS>MOLECULE
MIR
   23    22     1     0     0
SMALL
No Charge or Current Charge


@<TRIPOS>ATOM
      1 N           52.3090    48.8360    -2.4100 n8         1 MIR      -0.986200
      2 CA          53.4440    48.5720    -3.3850 c3         1 MIR      -0.006500
      3 CB          54.7150    49.4460    -3.1290 c3         1 MIR       0.230600
      4 OG          55.3410    49.1300    -1.8730 os         1 MIR      -0.606400
      5 P           54.7800    49.6830    -0.4650 p5         1 MIR       1.415800
      6 O1P         53.7330    48.8020     0.1320 o          1 MIR      -0.850000
      7 O2P         54.3110    51.0960    -0.5870 o          1 MIR      -0.850000
      8 O3P         56.1560    49.6600     0.3810 os         1 MIR      -0.600400
      9 C1          56.6290    48.4840     1.0610 c3         1 MIR       0.218600
     10 C2          56.9320    47.3410     0.0660 c3         1 MIR      -0.086100
     11 C           53.8960    47.0720    -3.6140 c          1 MIR       0.749000
     12 O           54.3040    46.7630    -4.7280 o          1 MIR      -0.751000
     13 OXT         53.6940    46.2400    -2.7360 o          1 MIR      -0.751000
     14 HN          52.6530    48.5850    -1.4660 hn         1 MIR       0.383000
     15 HNA         52.1600    49.8480    -2.3320 hn         1 MIR       0.383000
     16 HA          53.0530    48.9040    -4.3560 h1         1 MIR       0.012700
     17 HB          55.4300    49.2770    -3.9450 h1         1 MIR      -0.005800
     18 HBA         54.4380    50.5080    -3.1660 h1         1 MIR      -0.005800
     19 H1          57.5500    48.7220     1.6080 h1         1 MIR       0.034200
     20 H1A         55.8910    48.1370     1.7970 h1         1 MIR       0.034200
     21 H2          56.0130    46.9420    -0.3790 hc         1 MIR       0.013033
     22 H2A         57.5970    47.6860    -0.7340 hc         1 MIR       0.013033
     23 H2B         57.4300    46.5160     0.5880 hc         1 MIR       0.013033
@<TRIPOS>BOND
     1     1     2 1   
     2     1    14 1   
     3     1    15 1   
     4     2     3 1   
     5     2    11 1   
     6     2    16 1   
     7     3     4 1   
     8     3    17 1   
     9     3    18 1   
    10     4     5 1   
    11     5     6 1   
    12     5     7 1   
    13     5     8 1   
    14     8     9 1   
    15     9    10 1   
    16     9    19 1   
    17     9    20 1   
    18    10    21 1   
    19    10    22 1   
    20    10    23 1   
    21    11    12 1   
    22    11    13 1   
@<TRIPOS>SUBSTRUCTURE
     1 MIR         1 TEMP              0 ****  ****    0 ROOT
