@<TRIPOS>MOLECULE
MIS
   26    25     1     0     0
SMALL
No Charge or Current Charge


@<TRIPOS>ATOM
      1 N            8.4420    40.2610    31.9180 n8         1 MIS      -0.878800
      2 CA           6.9430    40.4320    32.0600 c3         1 MIS       0.022500
      3 CB           6.4800    40.3100    33.5470 c3         1 MIS       0.219400
      4 OG           6.9030    39.0750    34.1700 os         1 MIS      -0.618200
      5 P            6.4430    37.6220    33.6360 p5         1 MIS       1.408800
      6 O1P          5.1750    37.7010    32.8500 o          1 MIS      -0.840500
      7 O2P          6.3040    36.6670    34.7750 o          1 MIS      -0.840500
      8 O3P          7.7120    37.2780    32.6960 os         1 MIS      -0.573200
      9 C1           8.8860    36.6630    33.2450 c3         1 MIS       0.215100
     10 C2          10.1000    37.1610    32.4360 c3         1 MIS      -0.098600
     11 C3           8.7190    35.1260    33.1770 c3         1 MIS      -0.098600
     12 C            6.3070    41.7360    31.4110 c          1 MIS       0.929600
     13 O            6.0460    42.7090    32.1150 o          1 MIS      -0.857300
     14 OXT          6.0890    41.7400    30.2020 o          1 MIS      -0.857300
     15 H            8.6750    40.1850    30.9230 hn         1 MIS       0.316800
     16 H2           8.6840    39.3430    32.3090 hn         1 MIS       0.316800
     17 HA           6.5060    39.5910    31.5090 h1         1 MIS      -0.007300
     18 HB2          6.8820    41.1600    34.1150 h1         1 MIS       0.032200
     19 HB3          5.3850    40.3900    33.5830 h1         1 MIS       0.032200
     20 H1           9.0300    36.9550    34.2950 h1         1 MIS       0.053700
     21 H21         11.0100    36.6380    32.7500 hc         1 MIS       0.020200
     22 H22          9.9560    36.9850    31.3620 hc         1 MIS       0.020200
     23 H23         10.2600    38.2330    32.5970 hc         1 MIS       0.020200
     24 H31          9.6250    34.6310    33.5470 hc         1 MIS       0.020200
     25 H32          7.8810    34.7820    33.7920 hc         1 MIS       0.020200
     26 H33          8.5490    34.7980    32.1450 hc         1 MIS       0.020200
@<TRIPOS>BOND
     1     1     2 1   
     2     1    15 1   
     3     1    16 1   
     4     2     3 1   
     5     2    12 1   
     6     2    17 1   
     7     3     4 1   
     8     3    18 1   
     9     3    19 1   
    10     4     5 1   
    11     5     6 1   
    12     5     7 1   
    13     5     8 1   
    14     8     9 1   
    15     9    10 1   
    16     9    11 1   
    17     9    20 1   
    18    10    21 1   
    19    10    22 1   
    20    10    23 1   
    21    11    24 1   
    22    11    25 1   
    23    11    26 1   
    24    12    13 1   
    25    12    14 1   
@<TRIPOS>SUBSTRUCTURE
     1 MIS         1 TEMP              0 ****  ****    0 ROOT
