@<TRIPOS>MOLECULE
MIS
   26    25     1     0     0
SMALL
bcc


@<TRIPOS>ATOM
      1 N            8.6490    40.6690    32.7550 n8         1 MIS      -0.878800
      2 CA           7.3530    41.0140    32.1920 c3         1 MIS       0.022500
      3 CB           6.3100    40.0040    32.6400 c3         1 MIS       0.219400
      4 OG           6.7050    38.7050    32.2190 os         1 MIS      -0.618200
      5 P            6.1570    37.3760    33.0230 p5         1 MIS       1.408800
      6 O1P          4.8350    36.9510    32.4640 o          1 MIS      -0.840500
      7 O2P          6.3340    37.5820    34.4990 o          1 MIS      -0.840500
      8 O3P          7.2590    36.3120    32.4460 os         1 MIS      -0.573200
      9 C1           8.6080    36.3510    32.9060 c3         1 MIS       0.215100
     10 C2           9.5160    36.1180    31.7120 c3         1 MIS      -0.098600
     11 C3           8.8160    35.3070    33.9900 c3         1 MIS      -0.098600
     12 C            6.9290    42.4520    32.5930 c          1 MIS       0.929600
     13 O            5.7240    42.7320    32.4380 o          1 MIS      -0.857300
     14 OXT          7.8260    43.2150    33.0010 o          1 MIS      -0.857300
     15 H            9.2430    41.4860    32.7060 hn         1 MIS       0.316800
     16 H2           9.0870    39.9470    32.2000 hn         1 MIS       0.316800
     17 HA           7.3660    41.0080    31.0870 h1         1 MIS      -0.007300
     18 HB2          6.2190    40.0460    33.7300 h1         1 MIS       0.032200
     19 HB3          5.3380    40.2580    32.2110 h1         1 MIS       0.032200
     20 H1           8.8400    37.3380    33.3250 h1         1 MIS       0.053700
     21 H21         10.5620    36.1450    32.0180 hc         1 MIS       0.020200
     22 H22          9.3250    35.1430    31.2590 hc         1 MIS       0.020200
     23 H23          9.3700    36.8860    30.9510 hc         1 MIS       0.020200
     24 H31          9.8470    35.3220    34.3450 hc         1 MIS       0.020200
     25 H32          8.1650    35.5000    34.8420 hc         1 MIS       0.020200
     26 H33          8.6060    34.3050    33.6130 hc         1 MIS       0.020200
@<TRIPOS>BOND
     1     1     2 1   
     2     1    15 1   
     3     1    16 1   
     4     2     3 1   
     5     2    12 1   
     6     2    17 1   
     7     3     4 1   
     8     3    18 1   
     9     3    19 1   
    10     4     5 1   
    11     5     6 1   
    12     5     7 1   
    13     5     8 1   
    14     8     9 1   
    15     9    10 1   
    16     9    11 1   
    17     9    20 1   
    18    10    21 1   
    19    10    22 1   
    20    10    23 1   
    21    11    24 1   
    22    11    25 1   
    23    11    26 1   
    24    12    13 1   
    25    12    14 1   
@<TRIPOS>SUBSTRUCTURE
     1 MIS         1 TEMP              0 ****  ****    0 ROOT
