@<TRIPOS>MOLECULE
MIT
   71    73     1     0     0
SMALL
bcc


@<TRIPOS>ATOM
      1 S            0.8860    -2.2160    -1.3020 sy         1 MIT       1.297200
      2 O1           1.8950    -2.6020    -0.3180 o          1 MIT      -0.638800
      3 O2           0.8240    -2.9660    -2.5480 o          1 MIT      -0.638800
      4 C1          -0.0900    -2.6340     3.1820 c6         1 MIT       0.234800
      5 C2          -1.3580    -1.9550     3.6690 c6         1 MIT      -0.079700
      6 C3          -2.5160    -2.4430     2.8090 c6         1 MIT      -0.017100
      7 C4          -2.2350    -2.3010     1.3370 ca         1 MIT      -0.194300
      8 C5          -3.2710    -2.1400     0.4410 ca         1 MIT      -0.028000
      9 C6          -3.0600    -1.9970    -0.9260 ca         1 MIT      -0.146000
     10 C7          -1.7710    -2.0380    -1.3990 ca         1 MIT       0.020000
     11 C8          -0.6980    -2.2130    -0.5220 ca         1 MIT      -0.399500
     12 C9          -0.8950    -2.3190     0.8760 ca         1 MIT       0.289600
     13 N            0.1200    -2.3880     1.7740 nu         1 MIT      -0.796600
     14 N1           1.2070    -0.6580    -1.7450 n7         1 MIT      -0.821100
     15 CA           0.8650     0.4120    -0.8160 c3         1 MIT       0.128500
     16 C           -0.3780     1.1350    -1.3590 c          1 MIT       0.634100
     17 O           -0.4020     1.3370    -2.5660 o          1 MIT      -0.558100
     18 CB           2.0180     1.4090    -0.7100 c3         1 MIT      -0.065400
     19 CG           3.2660     0.8010    -0.0890 c3         1 MIT      -0.093400
     20 CD           4.4070     1.8040    -0.0990 c3         1 MIT       0.024300
     21 NE           5.5920     1.2250     0.5100 nu         1 MIT      -0.393100
     22 CZ           6.8010     1.7700     0.4640 cz         1 MIT       0.525300
     23 NH1          6.9950     2.9260    -0.1550 nv         1 MIT      -0.517200
     24 NH2          7.8280     1.1450     1.0260 nv         1 MIT      -0.517200
     25 N2          -1.3490     1.5250    -0.5170 n          1 MIT      -0.412800
     26 C11         -2.4990     2.2740    -1.0410 c6         1 MIT      -0.044300
     27 C21         -3.7230     2.0270    -0.1530 c6         1 MIT      -0.076400
     28 C31         -3.5010     2.3020     1.3300 c6         1 MIT      -0.064700
     29 C41         -2.3010     1.4750     1.7750 c6         1 MIT      -0.078400
     30 C51         -1.0840     1.7310     0.9060 c6         1 MIT       0.101000
     31 C61         -2.9430     1.9160    -2.4880 c          1 MIT       0.948600
     32 O11         -3.2360     0.7320    -2.7170 o          1 MIT      -0.815300
     33 O21         -3.0870     2.8890    -3.2560 o          1 MIT      -0.815300
     34 C71         -3.3530     3.7870     1.6490 c3         1 MIT      -0.082100
     35 HN           1.0450    -2.5580     1.4160 hn         1 MIT       0.459800
     36 H1A         -0.1510    -3.7090     3.3950 h1         1 MIT       0.031700
     37 H2          -1.2410    -0.8750     3.5220 hc         1 MIT       0.059700
     38 H3          -2.7130    -3.4950     3.0490 hc         1 MIT       0.046700
     39 H3A         -3.4300    -1.8990     3.0620 hc         1 MIT       0.046700
     40 H5          -4.2840    -2.1100     0.8280 ha         1 MIT       0.125000
     41 H6          -3.8840    -1.8330    -1.6030 ha         1 MIT       0.171000
     42 H7          -1.5930    -1.9200    -2.4590 ha         1 MIT       0.164000
     43 H            0.9150    -0.4560    -2.6980 hn         1 MIT       0.466800
     44 HA           0.6910    -0.0300     0.1660 h1         1 MIT       0.067700
     45 HB2          2.2400     1.7910    -1.7100 hc         1 MIT       0.059700
     46 HB3          1.6960     2.2690    -0.1150 hc         1 MIT       0.059700
     47 HG2          3.0540     0.4970     0.9400 hc         1 MIT       0.069700
     48 HG3          3.5610    -0.0940    -0.6390 hc         1 MIT       0.069700
     49 HD2          4.6310     2.0800    -1.1320 h1         1 MIT       0.065200
     50 HD3          4.1110     2.7130     0.4330 h1         1 MIT       0.065200
     51 HE           5.4750     0.3990     1.0750 hn         1 MIT       0.324700
     52 HH11         6.2320     3.4850    -0.4970 hn         1 MIT       0.325700
     53 HH12         7.9160     3.3240    -0.2280 hn         1 MIT       0.325700
     54 HH21         8.7430     1.5610     1.0500 hn         1 MIT       0.325700
     55 HH22         7.7190     0.2410     1.4540 hn         1 MIT       0.325700
     56 H11         -2.2370     3.3390    -1.0180 h1         1 MIT       0.034700
     57 H21         -4.5460     2.6390    -0.5330 hc         1 MIT       0.062200
     58 H22         -4.0120     0.9810    -0.2820 hc         1 MIT       0.062200
     59 H31         -4.3820     1.9400     1.8700 hc         1 MIT       0.036700
     60 H41         -2.0320     1.6960     2.8120 hc         1 MIT       0.040200
     61 H42         -2.5500     0.4120     1.7250 hc         1 MIT       0.040200
     62 H51         -0.2800     1.0810     1.2400 h1         1 MIT       0.015200
     63 H52         -0.7290     2.7570     1.0560 h1         1 MIT       0.015200
     64 H71         -4.2470     4.3370     1.3480 hc         1 MIT       0.026367
     65 H72         -3.2140     3.9430     2.7210 hc         1 MIT       0.026367
     66 H73         -2.5060     4.2500     1.1410 hc         1 MIT       0.026367
     67 C10         -1.5990    -2.2280     5.1450 c3         1 MIT      -0.086100
     68 H10         -0.7620    -1.8860     5.7560 hc         1 MIT       0.034367
     69 H10A        -2.4960    -1.7150     5.4940 hc         1 MIT       0.034367
     70 H10B        -1.7340    -3.2960     5.3280 hc         1 MIT       0.034367
     71 H1           0.7800    -2.2520     3.7190 h1         1 MIT       0.031700
@<TRIPOS>BOND
     1     1     2 2   
     2     1     3 2   
     3     1    11 1   
     4     1    14 1   
     5     4     5 1   
     6     4    13 1   
     7     4    36 1   
     8     4    71 1   
     9     5     6 1   
    10     5    37 1   
    11     5    67 1   
    12     6     7 1   
    13     6    38 1   
    14     6    39 1   
    15     7     8 ar  
    16     7    12 ar  
    17     8     9 ar  
    18     8    40 1   
    19     9    10 ar  
    20     9    41 1   
    21    10    11 ar  
    22    10    42 1   
    23    11    12 ar  
    24    12    13 1   
    25    13    35 1   
    26    14    15 1   
    27    14    43 1   
    28    15    16 1   
    29    15    18 1   
    30    15    44 1   
    31    16    17 2   
    32    16    25 1   
    33    18    19 1   
    34    18    45 1   
    35    18    46 1   
    36    19    20 1   
    37    19    47 1   
    38    19    48 1   
    39    20    21 1   
    40    20    49 1   
    41    20    50 1   
    42    21    22 2   
    43    21    51 1   
    44    22    23 1   
    45    22    24 1   
    46    23    52 1   
    47    23    53 1   
    48    24    54 1   
    49    24    55 1   
    50    25    26 1   
    51    25    30 1   
    52    26    27 1   
    53    26    31 1   
    54    26    56 1   
    55    27    28 1   
    56    27    57 1   
    57    27    58 1   
    58    28    29 1   
    59    28    34 1   
    60    28    59 1   
    61    29    30 1   
    62    29    60 1   
    63    29    61 1   
    64    30    62 1   
    65    30    63 1   
    66    31    32 1   
    67    31    33 1   
    68    34    64 1   
    69    34    65 1   
    70    34    66 1   
    71    67    68 1   
    72    67    69 1   
    73    67    70 1   
@<TRIPOS>SUBSTRUCTURE
     1 MIT         1 TEMP              0 ****  ****    0 ROOT
