@<TRIPOS>MOLECULE
MIT
   71    73     1     0     0
SMALL
No Charge or Current Charge


@<TRIPOS>ATOM
      1 S            0.2680    -2.4400    -1.8620 sy         1 MIT       1.155600
      2 O1           1.2370    -3.4580    -1.4490 o          1 MIT      -0.568000
      3 O2          -0.3520    -2.4430    -3.1860 o          1 MIT      -0.568000
      4 C1           0.8520    -3.1500     2.5710 c6         1 MIT       0.234800
      5 C2           0.0570    -2.2520     3.5460 c6         1 MIT      -0.079700
      6 C3          -1.4560    -2.3370     3.2190 c6         1 MIT      -0.017100
      7 C4          -1.7400    -2.1990     1.7160 ca         1 MIT      -0.194300
      8 C5          -3.0400    -1.8710     1.2950 ca         1 MIT      -0.010000
      9 C6          -3.3200    -1.7370    -0.0710 ca         1 MIT      -0.128000
     10 C7          -2.3060    -1.9260    -1.0210 ca         1 MIT       0.038000
     11 C8          -0.9970    -2.2510    -0.6100 ca         1 MIT      -0.399500
     12 C9          -0.7180    -2.4060     0.7580 ca         1 MIT       0.428000
     13 N            0.5600    -2.7190     1.2010 nu         1 MIT      -0.990200
     14 N1           1.1030    -1.0000    -1.7980 n7         1 MIT      -0.876300
     15 CA           0.5720     0.1710    -1.0290 c3         1 MIT       0.128500
     16 C           -0.6790     0.8650    -1.6960 c          1 MIT       0.567100
     17 O           -0.7070     0.9720    -2.9180 o          1 MIT      -0.558100
     18 CB           1.7100     1.2060    -0.8460 c3         1 MIT      -0.065400
     19 CG           2.8600     0.7100     0.0650 c3         1 MIT      -0.093400
     20 CD           3.9540     1.7730     0.2750 c3         1 MIT       0.053600
     21 NE           5.0120     1.2400     1.1540 nu         1 MIT      -0.878000
     22 CZ           6.1100     1.8300     1.5760 cz         1 MIT       0.930600
     23 NH1          6.3850     3.0520     1.2250 nv         1 MIT      -0.617800
     24 NH2          6.9210     1.1770     2.3530 nv         1 MIT      -0.617800
     25 N2          -1.7430     1.3700    -0.8850 n          1 MIT      -0.345800
     26 C11         -2.8590     2.1970    -1.5220 c6         1 MIT      -0.044300
     27 C21         -3.9990     2.6610    -0.5690 c6         1 MIT      -0.076400
     28 C31         -3.5040     3.1260     0.8100 c6         1 MIT      -0.064700
     29 C41         -2.7630     1.9420     1.4430 c6         1 MIT      -0.078400
     30 C51         -1.5520     1.4880     0.6000 c6         1 MIT       0.101000
     31 C61         -3.5430     1.6010    -2.8020 c          1 MIT       0.738000
     32 O11         -3.8090     0.4060    -2.8050 o          1 MIT      -0.710000
     33 O21         -3.4570     2.2520    -3.8370 o          1 MIT      -0.710000
     34 C71         -2.6520     4.4270     0.7500 c3         1 MIT      -0.082100
     35 HN           1.2010    -3.0030     0.4540 hn         1 MIT       0.515000
     36 H1A          0.5460    -4.1980     2.7120 h1         1 MIT       0.031700
     37 H2           0.3870    -1.2130     3.4040 hc         1 MIT       0.059700
     38 H3          -1.8550    -3.3010     3.5650 hc         1 MIT       0.046700
     39 H3A         -1.9960    -1.5600     3.7780 hc         1 MIT       0.046700
     40 H5          -3.8310    -1.7160     2.0250 ha         1 MIT       0.107000
     41 H6          -4.3240    -1.4770    -0.3980 ha         1 MIT       0.153000
     42 H7          -2.5480    -1.8080    -2.0760 ha         1 MIT       0.146000
     43 H            1.0940    -0.7680    -2.7920 hn         1 MIT       0.522000
     44 HA           0.3080    -0.1550    -0.0210 h1         1 MIT       0.067700
     45 HB2          2.1110     1.4870    -1.8280 hc         1 MIT       0.059700
     46 HB3          1.2920     2.1200    -0.4080 hc         1 MIT       0.059700
     47 HG2          2.4470     0.4170     1.0380 hc         1 MIT       0.069700
     48 HG3          3.3120    -0.1880    -0.3750 hc         1 MIT       0.069700
     49 HD2          4.3750     2.0530    -0.7020 h1         1 MIT       0.065200
     50 HD3          3.5020     2.6700     0.7230 h1         1 MIT       0.065200
     51 HE           4.8800     0.2870     1.4720 hn         1 MIT       0.375000
     52 HH11         5.7640     3.5640     0.6220 hn         1 MIT       0.376000
     53 HH12         7.2180     3.5250     1.5320 hn         1 MIT       0.376000
     54 HH21         7.7710     1.5890     2.7010 hn         1 MIT       0.376000
     55 HH22         6.7290     0.2320     2.6390 hn         1 MIT       0.376000
     56 H11         -2.3660     3.1160    -1.8690 h1         1 MIT       0.034700
     57 H21         -4.5760     3.4630    -1.0490 hc         1 MIT       0.062200
     58 H22         -4.7070     1.8310    -0.4280 hc         1 MIT       0.062200
     59 H31         -4.3790     3.3620     1.4320 hc         1 MIT       0.036700
     60 H41         -2.4300     2.1980     2.4580 hc         1 MIT       0.040200
     61 H42         -3.4560     1.0970     1.5570 hc         1 MIT       0.040200
     62 H51         -1.2490     0.5170     1.0080 h1         1 MIT       0.015200
     63 H52         -0.7240     2.1870     0.7800 h1         1 MIT       0.015200
     64 H71         -3.2300     5.2540     0.3210 hc         1 MIT       0.026367
     65 H72         -2.3360     4.7340     1.7540 hc         1 MIT       0.026367
     66 H73         -1.7490     4.3050     0.1420 hc         1 MIT       0.026367
     67 C10          0.3490    -2.6050     5.0290 c3         1 MIT      -0.086100
     68 H10          1.4170    -2.5020     5.2570 hc         1 MIT       0.034367
     69 H10A        -0.2000    -1.9430     5.7090 hc         1 MIT       0.034367
     70 H10B         0.0580    -3.6370     5.2590 hc         1 MIT       0.034367
     71 H1           1.9300    -3.0820     2.7770 h1         1 MIT       0.031700
@<TRIPOS>BOND
     1     1     2 2   
     2     1     3 2   
     3     1    11 1   
     4     1    14 1   
     5     4     5 1   
     6     4    13 1   
     7     4    36 1   
     8     4    71 1   
     9     5     6 1   
    10     5    37 1   
    11     5    67 1   
    12     6     7 1   
    13     6    38 1   
    14     6    39 1   
    15     7     8 ar  
    16     7    12 ar  
    17     8     9 ar  
    18     8    40 1   
    19     9    10 ar  
    20     9    41 1   
    21    10    11 ar  
    22    10    42 1   
    23    11    12 ar  
    24    12    13 1   
    25    13    35 1   
    26    14    15 1   
    27    14    43 1   
    28    15    16 1   
    29    15    18 1   
    30    15    44 1   
    31    16    17 2   
    32    16    25 1   
    33    18    19 1   
    34    18    45 1   
    35    18    46 1   
    36    19    20 1   
    37    19    47 1   
    38    19    48 1   
    39    20    21 1   
    40    20    49 1   
    41    20    50 1   
    42    21    22 2   
    43    21    51 1   
    44    22    23 1   
    45    22    24 1   
    46    23    52 1   
    47    23    53 1   
    48    24    54 1   
    49    24    55 1   
    50    25    26 1   
    51    25    30 1   
    52    26    27 1   
    53    26    31 1   
    54    26    56 1   
    55    27    28 1   
    56    27    57 1   
    57    27    58 1   
    58    28    29 1   
    59    28    34 1   
    60    28    59 1   
    61    29    30 1   
    62    29    60 1   
    63    29    61 1   
    64    30    62 1   
    65    30    63 1   
    66    31    32 1   
    67    31    33 1   
    68    34    64 1   
    69    34    65 1   
    70    34    66 1   
    71    67    68 1   
    72    67    69 1   
    73    67    70 1   
@<TRIPOS>SUBSTRUCTURE
     1 MIT         1 TEMP              0 ****  ****    0 ROOT
