@<TRIPOS>MOLECULE
MIU
   66    67     1     0     0
SMALL
No Charge or Current Charge


@<TRIPOS>ATOM
      1 C1           0.0020    -2.6360     0.6820 ca         1 MIU      -0.314500
      2 S11         -1.7320    -3.0820     0.4870 sy         1 MIU       1.150600
      3 O24         -1.8830    -4.0340    -0.6150 o          1 MIU      -0.529000
      4 O25         -2.3180    -3.3150     1.8070 o          1 MIU      -0.529000
      5 C2           0.5190    -2.3470     1.9610 ca         1 MIU       0.018000
      6 C3           1.8680    -1.9870     2.1020 ca         1 MIU      -0.134000
      7 C4           2.7030    -1.9060     0.9770 ca         1 MIU      -0.015000
      8 C5           2.1970    -2.2020    -0.3080 ca         1 MIU      -0.224300
      9 C6           3.0760    -2.1080    -1.5570 c3         1 MIU       0.358300
     10 F61          4.3180    -1.6380    -1.2990 f          1 MIU      -0.110667
     11 F1           3.2280    -3.3150    -2.1460 f          1 MIU      -0.110667
     12 F6           2.5320    -1.2820    -2.4790 f          1 MIU      -0.110667
     13 C10          0.8480    -2.5880    -0.4440 ca         1 MIU       0.033000
     14 N12         -2.4590    -1.6700    -0.0430 n7         1 MIU      -0.860300
     15 C13         -1.6620    -0.4320    -0.3110 c3         1 MIU       0.143500
     16 C14         -1.0580     0.2420     0.9790 c          1 MIU       0.578100
     17 O15         -1.6570     0.1690     2.0500 o          1 MIU      -0.618100
     18 C16         -2.5270     0.5650    -1.1290 c3         1 MIU      -0.063400
     19 C17         -3.7670     1.1360    -0.3930 c3         1 MIU      -0.098400
     20 C18         -4.5850     2.1040    -1.2710 c3         1 MIU       0.146800
     21 N19         -5.7310     2.6310    -0.5100 n2         1 MIU      -0.755900
     22 C20         -6.9330     2.4450    -0.8160 c2         1 MIU       0.828100
     23 N22         -7.9460     2.9090    -0.1600 nv         1 MIU      -1.071200
     24 N21         -7.4530     1.7560    -1.7870 nv         1 MIU      -1.071200
     25 N26          0.2250     0.8430     0.9200 n          1 MIU      -0.386800
     26 C27          0.7980     1.4550     2.1580 c6         1 MIU       0.087500
     27 C28          2.3180     1.7600     2.0960 c6         1 MIU       0.138300
     28 N29          2.7000     2.5080     0.8710 n3         1 MIU      -0.713600
     29 C30          2.3010     1.7140    -0.3220 c6         1 MIU       0.138300
     30 C31          0.7800     1.4060    -0.3530 c6         1 MIU       0.087500
     31 C32          4.1350     2.8870     0.8850 c3         1 MIU       0.169800
     32 C33          4.5660     3.8430    -0.2490 c3         1 MIU      -0.082400
     33 C8           6.0170     4.3330    -0.0800 c3         1 MIU       0.148800
     34 N9           6.4170     5.2400    -1.1730 n8         1 MIU      -0.993200
     35 H2          -0.1160    -2.3890     2.8440 ha         1 MIU       0.140000
     36 H3           2.2650    -1.7590     3.0880 ha         1 MIU       0.130000
     37 H4           3.7420    -1.6110     1.1140 ha         1 MIU       0.133000
     38 H10          0.4510    -2.8260    -1.4320 ha         1 MIU       0.155000
     39 H12         -3.0690    -1.4950     0.7570 hn         1 MIU       0.511000
     40 H13         -0.8260    -0.7010    -0.9650 h1         1 MIU       0.074700
     41 H161        -1.8960     1.4010    -1.4520 hc         1 MIU       0.053200
     42 H162        -2.8590     0.0630    -2.0470 hc         1 MIU       0.053200
     43 H171        -4.4160     0.3120    -0.0730 hc         1 MIU       0.056700
     44 H172        -3.4450     1.6660     0.5120 hc         1 MIU       0.056700
     45 H181        -3.9350     2.9320    -1.5860 h1         1 MIU       0.027200
     46 H182        -4.8970     1.5770    -2.1830 h1         1 MIU       0.027200
     47 H221        -7.6130     3.5470     0.5490 hn         1 MIU       0.472250
     48 H222        -8.6040     3.3350    -0.7950 hn         1 MIU       0.472250
     49 H211        -6.7790     1.1110    -2.1680 hn         1 MIU       0.472250
     50 H212        -8.3010     1.3120    -1.4700 hn         1 MIU       0.472250
     51 H271         0.2620     2.3930     2.3590 h1         1 MIU       0.069200
     52 H272         0.6180     0.7900     3.0150 h1         1 MIU       0.069200
     53 H281         2.5930     2.3300     2.9950 h1         1 MIU       0.043200
     54 H282         2.8680     0.8090     2.1410 h1         1 MIU       0.043200
     55 H301         2.5510     2.2450    -1.2510 h1         1 MIU       0.043200
     56 H302         2.8520     0.7620    -0.3400 h1         1 MIU       0.043200
     57 H311         0.6070     0.7230    -1.1930 h1         1 MIU       0.069200
     58 H312         0.2450     2.3390    -0.5780 h1         1 MIU       0.069200
     59 H321         4.3600     3.3850     1.8380 h1         1 MIU       0.028200
     60 H322         4.7610     1.9840     0.8420 h1         1 MIU       0.028200
     61 H331         4.4760     3.3370    -1.2170 hc         1 MIU       0.056700
     62 H332         3.8890     4.7060    -0.2640 hc         1 MIU       0.056700
     63 H8C1         6.1190     4.8660     0.8760 h1         1 MIU       0.027200
     64 H8C2         6.6990     3.4710    -0.0720 h1         1 MIU       0.027200
     65 H9N1         5.8400     6.0890    -1.1310 hn         1 MIU       0.393000
     66 H9N2         7.3670     5.5860    -0.9890 hn         1 MIU       0.393000
@<TRIPOS>BOND
     1     1     2 1   
     2     1     5 ar  
     3     1    13 ar  
     4     2     3 2   
     5     2     4 2   
     6     2    14 1   
     7     5     6 ar  
     8     5    35 1   
     9     6     7 ar  
    10     6    36 1   
    11     7     8 ar  
    12     7    37 1   
    13     8     9 1   
    14     8    13 ar  
    15     9    10 1   
    16     9    11 1   
    17     9    12 1   
    18    13    38 1   
    19    14    15 1   
    20    14    39 1   
    21    15    16 1   
    22    15    18 1   
    23    15    40 1   
    24    16    17 2   
    25    16    25 1   
    26    18    19 1   
    27    18    41 1   
    28    18    42 1   
    29    19    20 1   
    30    19    43 1   
    31    19    44 1   
    32    20    21 1   
    33    20    45 1   
    34    20    46 1   
    35    21    22 2   
    36    22    23 1   
    37    22    24 1   
    38    23    47 1   
    39    23    48 1   
    40    24    49 1   
    41    24    50 1   
    42    25    26 1   
    43    25    30 1   
    44    26    27 1   
    45    26    51 1   
    46    26    52 1   
    47    27    28 1   
    48    27    53 1   
    49    27    54 1   
    50    28    29 1   
    51    28    31 1   
    52    29    30 1   
    53    29    55 1   
    54    29    56 1   
    55    30    57 1   
    56    30    58 1   
    57    31    32 1   
    58    31    59 1   
    59    31    60 1   
    60    32    33 1   
    61    32    61 1   
    62    32    62 1   
    63    33    34 1   
    64    33    63 1   
    65    33    64 1   
    66    34    65 1   
    67    34    66 1   
@<TRIPOS>SUBSTRUCTURE
     1 MIU         1 TEMP              0 ****  ****    0 ROOT
