@<TRIPOS>MOLECULE
MIU
   66    67     1     0     0
SMALL
bcc


@<TRIPOS>ATOM
      1 C1           0.4120    -2.0340     0.2420 ca         1 MIU      -0.314500
      2 S11         -1.1580    -2.3180    -0.5460 sy         1 MIU       1.292200
      3 O24         -0.9190    -2.3410    -1.9780 o          1 MIU      -0.599800
      4 O25         -1.7960    -3.4470     0.1070 o          1 MIU      -0.599800
      5 C2           0.4610    -1.9590     1.6300 ca         1 MIU       0.000000
      6 C3           1.6790    -1.7420     2.2460 ca         1 MIU      -0.152000
      7 C4           2.8370    -1.6160     1.4900 ca         1 MIU      -0.033000
      8 C5           2.7740    -1.7010     0.1070 ca         1 MIU      -0.224300
      9 C6           4.0050    -1.5830    -0.7390 c3         1 MIU       0.722200
     10 F61          5.0950    -1.3020    -0.0210 f          1 MIU      -0.231967
     11 F1           4.2520    -2.7170    -1.4070 f          1 MIU      -0.231967
     12 F6           3.8800    -0.6170    -1.6600 f          1 MIU      -0.231967
     13 C10          1.5540    -1.9090    -0.5280 ca         1 MIU       0.015000
     14 N12         -2.1040    -1.0170    -0.2190 n7         1 MIU      -0.805100
     15 C13         -1.6360     0.3140    -0.5770 c3         1 MIU       0.143500
     16 C14         -1.1350     1.0260     0.6870 c          1 MIU       0.645100
     17 O15         -1.5340     0.6420     1.7790 o          1 MIU      -0.618100
     18 C16         -2.7600     1.1100    -1.2500 c3         1 MIU      -0.063400
     19 C17         -3.9870     1.3370    -0.3770 c3         1 MIU      -0.098400
     20 C18         -5.0860     2.0830    -1.1360 c3         1 MIU       0.146800
     21 N19         -6.2420     2.3660    -0.3250 n2         1 MIU      -0.755900
     22 C20         -7.1280     1.4500    -0.1700 c2         1 MIU       0.828100
     23 N22         -8.1710     1.6670     0.7070 nv         1 MIU      -0.960800
     24 N21         -7.1440     0.2220    -0.7520 nv         1 MIU      -0.960800
     25 N26         -0.3330     2.0930     0.5360 n          1 MIU      -0.453800
     26 C27          0.2310     2.7640     1.6960 c6         1 MIU       0.087500
     27 C28          1.7010     2.4050     1.8260 c6         1 MIU       0.138300
     28 N29          2.4380     2.7340     0.6180 n3         1 MIU      -0.713600
     29 C30          1.8440     2.1120    -0.5490 c6         1 MIU       0.138300
     30 C31          0.3730     2.4680    -0.6760 c6         1 MIU       0.087500
     31 C32          3.8420     2.3950     0.7790 c3         1 MIU       0.169800
     32 C33          4.7420     2.8850    -0.3440 c3         1 MIU      -0.082400
     33 C8           6.2030     2.5740    -0.0550 c3         1 MIU       0.148800
     34 N9           7.0550     3.0350    -1.1410 n8         1 MIU      -0.882800
     35 H2          -0.4340    -2.0620     2.2290 ha         1 MIU       0.158000
     36 H3           1.7330    -1.6760     3.3240 ha         1 MIU       0.148000
     37 H4           3.7770    -1.4490     1.9960 ha         1 MIU       0.151000
     38 H10          1.4900    -1.9710    -1.6070 ha         1 MIU       0.173000
     39 H12         -2.5230    -1.0650     0.7050 hn         1 MIU       0.455800
     40 H13         -0.8330     0.1990    -1.3070 h1         1 MIU       0.074700
     41 H161        -2.3640     2.0740    -1.5800 hc         1 MIU       0.053200
     42 H162        -3.0420     0.5660    -2.1550 hc         1 MIU       0.053200
     43 H171        -4.3760     0.3790    -0.0190 hc         1 MIU       0.056700
     44 H172        -3.7260     1.9190     0.5110 hc         1 MIU       0.056700
     45 H181        -4.6710     3.0360    -1.4800 h1         1 MIU       0.027200
     46 H182        -5.3190     1.5290    -2.0610 h1         1 MIU       0.027200
     47 H221        -8.2750     2.6380     0.9580 hn         1 MIU       0.417050
     48 H222        -9.0540     1.2480     0.4580 hn         1 MIU       0.417050
     49 H211        -6.4460    -0.0520    -1.4180 hn         1 MIU       0.417050
     50 H212        -7.8620    -0.4480    -0.5480 hn         1 MIU       0.417050
     51 H271         0.1150     3.8420     1.5580 h1         1 MIU       0.069200
     52 H272        -0.3090     2.4780     2.5940 h1         1 MIU       0.069200
     53 H281         2.1300     2.9600     2.6630 h1         1 MIU       0.043200
     54 H282         1.7800     1.3330     2.0780 h1         1 MIU       0.043200
     55 H301         2.3520     2.4550    -1.4510 h1         1 MIU       0.043200
     56 H302         1.9370     1.0130    -0.5230 h1         1 MIU       0.043200
     57 H311        -0.0420     1.9860    -1.5570 h1         1 MIU       0.069200
     58 H312         0.2580     3.5450    -0.8180 h1         1 MIU       0.069200
     59 H321         4.1800     2.8450     1.7180 h1         1 MIU       0.028200
     60 H322         3.9750     1.3050     0.9010 h1         1 MIU       0.028200
     61 H331         4.4760     2.4190    -1.2950 hc         1 MIU       0.056700
     62 H332         4.6080     3.9650    -0.4680 hc         1 MIU       0.056700
     63 H8C1         6.4750     2.9960     0.9230 h1         1 MIU       0.027200
     64 H8C2         6.3220     1.4900     0.0360 h1         1 MIU       0.027200
     65 H9N1         7.0530     4.0480    -1.1550 hn         1 MIU       0.337800
     66 H9N2         8.0140     2.7700    -0.9530 hn         1 MIU       0.337800
@<TRIPOS>BOND
     1     1     2 1   
     2     1     5 ar  
     3     1    13 ar  
     4     2     3 2   
     5     2     4 2   
     6     2    14 1   
     7     5     6 ar  
     8     5    35 1   
     9     6     7 ar  
    10     6    36 1   
    11     7     8 ar  
    12     7    37 1   
    13     8     9 1   
    14     8    13 ar  
    15     9    10 1   
    16     9    11 1   
    17     9    12 1   
    18    13    38 1   
    19    14    15 1   
    20    14    39 1   
    21    15    16 1   
    22    15    18 1   
    23    15    40 1   
    24    16    17 2   
    25    16    25 1   
    26    18    19 1   
    27    18    41 1   
    28    18    42 1   
    29    19    20 1   
    30    19    43 1   
    31    19    44 1   
    32    20    21 1   
    33    20    45 1   
    34    20    46 1   
    35    21    22 2   
    36    22    23 1   
    37    22    24 1   
    38    23    47 1   
    39    23    48 1   
    40    24    49 1   
    41    24    50 1   
    42    25    26 1   
    43    25    30 1   
    44    26    27 1   
    45    26    51 1   
    46    26    52 1   
    47    27    28 1   
    48    27    53 1   
    49    27    54 1   
    50    28    29 1   
    51    28    31 1   
    52    29    30 1   
    53    29    55 1   
    54    29    56 1   
    55    30    57 1   
    56    30    58 1   
    57    31    32 1   
    58    31    59 1   
    59    31    60 1   
    60    32    33 1   
    61    32    61 1   
    62    32    62 1   
    63    33    34 1   
    64    33    63 1   
    65    33    64 1   
    66    34    65 1   
    67    34    66 1   
@<TRIPOS>SUBSTRUCTURE
     1 MIU         1 TEMP              0 ****  ****    0 ROOT
