@<TRIPOS>MOLECULE
MIV
  110   112     1     0     0
SMALL
abcg2


@<TRIPOS>ATOM
      1 O5          -0.3640    -1.6960     2.1060 o          1 MIV      -0.489000
      2 C24         -0.2870    -2.0210     0.9450 c          1 MIV       0.600300
      3 C23          0.9580    -2.0710     0.1570 ce         1 MIV      -0.283200
      4 C22          2.0990    -1.5850     0.6460 c2         1 MIV      -0.126200
      5 C20          3.4290    -1.6720    -0.0300 c3         1 MIV      -0.053500
      6 C21          4.2840    -2.6270     0.8150 c3         1 MIV      -0.089100
      7 C11          4.1180    -0.3000    -0.1760 c3         1 MIV       0.192300
      8 O2           5.4060    -0.5230    -0.7420 os         1 MIV      -0.458000
      9 C12          6.4850    -0.0970     0.0060 c6         1 MIV       0.358300
     10 O4           6.5320     1.3020    -0.0270 os         1 MIV      -0.487000
     11 C18          7.5530     1.8220     0.8120 c6         1 MIV       0.184300
     12 C19          7.4410     3.3320     0.8060 c3         1 MIV      -0.088100
     13 C17          8.9110     1.3310     0.3300 c6         1 MIV      -0.148400
     14 C14          8.9540    -0.2000     0.2260 c6         1 MIV       0.193500
     15 N           10.2070    -0.7530    -0.2620 n3         1 MIV      -0.711600
     16 C16         10.6530    -0.2390    -1.5380 c3         1 MIV       0.159600
     17 C15         11.2640    -0.7090     0.7220 c3         1 MIV       0.159600
     18 C13          7.7620    -0.6920    -0.5940 c6         1 MIV       0.159300
     19 O3           7.7390    -2.0960    -0.5600 oh         1 MIV      -0.697000
     20 C9           3.3880     0.7360    -1.0530 c3         1 MIV      -0.069700
     21 C10          3.0990     0.1860    -2.4480 c3         1 MIV      -0.083100
     22 C8           2.1290     1.2800    -0.3610 c3         1 MIV      -0.067400
     23 C6           1.8510     2.7790    -0.5740 c3         1 MIV      -0.155700
     24 C7           1.5650     3.1770    -2.0230 c3         1 MIV      -0.081100
     25 C5           0.6780     3.1800     0.3050 c          1 MIV       0.574300
     26 O1           0.7590     4.0780     1.1220 o          1 MIV      -0.529100
     27 C4          -0.5330     2.3600     0.1420 ce         1 MIV      -0.326200
     28 C3          -1.3950     2.1500     1.1460 cf         1 MIV      -0.096000
     29 C2          -2.4510     1.1460     1.1650 cf         1 MIV      -0.190000
     30 C1          -2.4660     0.0900     0.3460 c2         1 MIV      -0.174200
     31 O6          -1.3310    -2.3850     0.1990 os         1 MIV      -0.451100
     32 C25         -2.6580    -2.3830     0.7480 c3         1 MIV       0.181300
     33 C26         -3.3450    -3.6230     0.1980 c3         1 MIV      -0.081400
     34 C27         -2.7610    -4.9240     0.7290 c3         1 MIV      -0.089100
     35 C28         -3.4030    -1.0780     0.3670 c3         1 MIV      -0.072500
     36 C29         -4.5860    -0.9000     1.3180 c3         1 MIV       0.171600
     37 O7          -5.3890     0.2100     0.9760 os         1 MIV      -0.443000
     38 C30         -6.5550    -0.0650     0.2960 c6         1 MIV       0.375300
     39 O11         -6.2260    -0.4770    -1.0090 os         1 MIV      -0.498000
     40 C36         -7.3480    -0.8480    -1.7920 c6         1 MIV       0.152300
     41 C37         -6.8350    -1.4090    -3.1010 c3         1 MIV      -0.093100
     42 C35         -8.2320     0.3910    -1.9780 c6         1 MIV       0.130300
     43 O10         -9.4000     0.1150    -2.7100 oh         1 MIV      -0.702000
     44 C33         -8.6450     0.9500    -0.6200 c6         1 MIV       0.171300
     45 O9          -9.4890     0.0290     0.0300 os         1 MIV      -0.445000
     46 C34        -10.7350     0.5460     0.4270 c3         1 MIV       0.154900
     47 C31         -7.4020     1.2060     0.2330 c6         1 MIV       0.136300
     48 O8          -7.8160     1.6180     1.5080 os         1 MIV      -0.443000
     49 C32         -7.0430     2.6420     2.0900 c3         1 MIV       0.147900
     50 H23          0.9120    -2.5030    -0.8360 ha         1 MIV       0.198000
     51 H22          2.0980    -1.1520     1.6440 ha         1 MIV       0.190000
     52 H20          3.2960    -2.1120    -1.0230 hc         1 MIV       0.068700
     53 H211         3.7720    -3.5790     0.9490 hc         1 MIV       0.042700
     54 H212         5.2440    -2.8320     0.3450 hc         1 MIV       0.042700
     55 H213         4.4790    -2.2100     1.8060 hc         1 MIV       0.042700
     56 H11          4.2280     0.1310     0.8300 h1         1 MIV       0.047700
     57 H9           4.0970     1.5650    -1.1480 hc         1 MIV       0.072700
     58 H12          6.3880    -0.4330     1.0560 h2         1 MIV       0.026700
     59 H13          7.8440    -0.3220    -1.6270 h1         1 MIV       0.052700
     60 H18          7.3900     1.4560     1.8390 h1         1 MIV       0.031700
     61 H191         6.4560     3.6560     1.1430 hc         1 MIV       0.046700
     62 H192         8.1830     3.7620     1.4790 hc         1 MIV       0.046700
     63 H193         7.6160     3.7360    -0.1920 hc         1 MIV       0.046700
     64 H171         9.1260     1.7860    -0.6430 hc         1 MIV       0.057200
     65 H172         9.6840     1.6790     1.0190 hc         1 MIV       0.057200
     66 H14          8.8200    -0.6010     1.2400 h1         1 MIV       0.063700
     67 H161        11.0070     0.8010    -1.5070 h1         1 MIV       0.029533
     68 H162        11.4820    -0.8500    -1.9020 h1         1 MIV       0.029533
     69 H163         9.8600    -0.2960    -2.2840 h1         1 MIV       0.029533
     70 H151        10.9360    -1.1820     1.6490 h1         1 MIV       0.029533
     71 H152        12.1290    -1.2650     0.3570 h1         1 MIV       0.029533
     72 H153        11.6120     0.3060     0.9690 h1         1 MIV       0.029533
     73 H3           7.0560    -2.3980    -1.1670 ho         1 MIV       0.510000
     74 H101         2.3580    -0.6150    -2.4180 hc         1 MIV       0.035367
     75 H102         2.7040     0.9580    -3.1060 hc         1 MIV       0.035367
     76 H103         4.0010    -0.2090    -2.9160 hc         1 MIV       0.035367
     77 H81C         1.2620     0.6940    -0.6740 hc         1 MIV       0.045700
     78 H82C         2.2140     1.1260     0.7190 hc         1 MIV       0.045700
     79 H6           2.7180     3.3480    -0.2240 hc         1 MIV       0.072700
     80 H71C         0.7720     2.5720    -2.4650 hc         1 MIV       0.039367
     81 H72C         1.2650     4.2240    -2.0900 hc         1 MIV       0.039367
     82 H73C         2.4540     3.0610    -2.6410 hc         1 MIV       0.039367
     83 H4          -0.6370     1.8080    -0.7860 ha         1 MIV       0.184000
     84 HA          -1.2700     2.7190     2.0630 ha         1 MIV       0.188000
     85 H2          -3.1830     1.2480     1.9560 ha         1 MIV       0.187000
     86 H1          -1.6960     0.0250    -0.4160 ha         1 MIV       0.171000
     87 H28         -3.7880    -1.2060    -0.6510 hc         1 MIV       0.086700
     88 H25         -2.5950    -2.4460     1.8380 h1         1 MIV       0.067700
     89 H261        -4.4060    -3.5740     0.4510 hc         1 MIV       0.051700
     90 H262        -3.2950    -3.6000    -0.8940 hc         1 MIV       0.051700
     91 H271        -3.2900    -5.7810     0.3120 hc         1 MIV       0.037367
     92 H272        -1.7080    -5.0320     0.4720 hc         1 MIV       0.037367
     93 H273        -2.8480    -4.9800     1.8160 hc         1 MIV       0.037367
     94 H291        -5.1870    -1.8150     1.3480 h1         1 MIV       0.048200
     95 H292        -4.2150    -0.7350     2.3340 h1         1 MIV       0.048200
     96 H30         -7.1220    -0.8690     0.8000 h2         1 MIV       0.048700
     97 H31         -6.8040     1.9840    -0.2640 h1         1 MIV       0.060700
     98 H36         -7.9290    -1.6250    -1.2740 h1         1 MIV       0.063700
     99 H371        -6.1670    -2.2520    -2.9220 hc         1 MIV       0.045367
    100 H372        -7.6580    -1.7750    -3.7140 hc         1 MIV       0.045367
    101 H373        -6.2900    -0.6550    -3.6740 hc         1 MIV       0.045367
    102 H35         -7.6220     1.1590    -2.4780 h1         1 MIV       0.041700
    103 H10         -9.1630     0.0340    -3.6380 ho         1 MIV       0.504000
    104 H33         -9.1610     1.9070    -0.7760 h1         1 MIV       0.059700
    105 H341       -11.2930    -0.2660     0.8940 h1         1 MIV       0.031700
    106 H342       -10.6340     1.3570     1.1540 h1         1 MIV       0.031700
    107 H343       -11.3180     0.9160    -0.4220 h1         1 MIV       0.031700
    108 H321        -6.0280     2.3200     2.3330 h1         1 MIV       0.033700
    109 H322        -6.9760     3.5210     1.4380 h1         1 MIV       0.033700
    110 H323        -7.5400     2.9410     3.0120 h1         1 MIV       0.033700
@<TRIPOS>BOND
     1     1     2 2   
     2     2     3 1   
     3     2    31 1   
     4     3     4 2   
     5     3    50 1   
     6     4     5 1   
     7     4    51 1   
     8     5     6 1   
     9     5     7 1   
    10     5    52 1   
    11     6    53 1   
    12     6    54 1   
    13     6    55 1   
    14     7     8 1   
    15     7    20 1   
    16     7    56 1   
    17     8     9 1   
    18     9    10 1   
    19     9    18 1   
    20     9    58 1   
    21    10    11 1   
    22    11    12 1   
    23    11    13 1   
    24    11    60 1   
    25    12    61 1   
    26    12    62 1   
    27    12    63 1   
    28    13    14 1   
    29    13    64 1   
    30    13    65 1   
    31    14    15 1   
    32    14    18 1   
    33    14    66 1   
    34    15    16 1   
    35    15    17 1   
    36    16    67 1   
    37    16    68 1   
    38    16    69 1   
    39    17    70 1   
    40    17    71 1   
    41    17    72 1   
    42    18    19 1   
    43    18    59 1   
    44    19    73 1   
    45    20    21 1   
    46    20    22 1   
    47    20    57 1   
    48    21    74 1   
    49    21    75 1   
    50    21    76 1   
    51    22    23 1   
    52    22    77 1   
    53    22    78 1   
    54    23    24 1   
    55    23    25 1   
    56    23    79 1   
    57    24    80 1   
    58    24    81 1   
    59    24    82 1   
    60    25    26 2   
    61    25    27 1   
    62    27    28 2   
    63    27    83 1   
    64    28    29 1   
    65    28    84 1   
    66    29    30 2   
    67    29    85 1   
    68    30    35 1   
    69    30    86 1   
    70    31    32 1   
    71    32    33 1   
    72    32    35 1   
    73    32    88 1   
    74    33    34 1   
    75    33    89 1   
    76    33    90 1   
    77    34    91 1   
    78    34    92 1   
    79    34    93 1   
    80    35    36 1   
    81    35    87 1   
    82    36    37 1   
    83    36    94 1   
    84    36    95 1   
    85    37    38 1   
    86    38    39 1   
    87    38    47 1   
    88    38    96 1   
    89    39    40 1   
    90    40    41 1   
    91    40    42 1   
    92    40    98 1   
    93    41    99 1   
    94    41   100 1   
    95    41   101 1   
    96    42    43 1   
    97    42    44 1   
    98    42   102 1   
    99    43   103 1   
   100    44    45 1   
   101    44    47 1   
   102    44   104 1   
   103    45    46 1   
   104    46   105 1   
   105    46   106 1   
   106    46   107 1   
   107    47    48 1   
   108    47    97 1   
   109    48    49 1   
   110    49   108 1   
   111    49   109 1   
   112    49   110 1   
@<TRIPOS>SUBSTRUCTURE
     1 MIV         1 TEMP              0 ****  ****    0 ROOT
