@<TRIPOS>MOLECULE
MIV
  110   112     1     0     0
SMALL
No Charge or Current Charge


@<TRIPOS>ATOM
      1 O5          -0.4340    -1.7080     2.5760 o          1 MIV      -0.489000
      2 C24         -0.5520    -2.0930     1.4210 c          1 MIV       0.600300
      3 C23          0.5730    -2.1310     0.4430 ce         1 MIV      -0.283200
      4 C22          1.8420    -1.7530     0.7350 c2         1 MIV      -0.126200
      5 C20          3.0300    -1.7750    -0.2230 c3         1 MIV      -0.053500
      6 C21          3.7590    -3.1300    -0.0370 c3         1 MIV      -0.089100
      7 C11          3.9700    -0.5210    -0.0370 c3         1 MIV       0.192300
      8 O2           5.2800    -0.8640    -0.5610 os         1 MIV      -0.458000
      9 C12          6.4250    -0.0920    -0.1350 c6         1 MIV       0.358300
     10 O4           6.4820     1.1530    -0.8500 os         1 MIV      -0.487000
     11 C18          7.5180     2.0330    -0.3840 c6         1 MIV       0.184300
     12 C19          7.3600     3.3650    -1.1520 c3         1 MIV      -0.088100
     13 C17          8.9000     1.3740    -0.6120 c6         1 MIV      -0.148400
     14 C14          8.9650    -0.0280     0.0700 c6         1 MIV       0.193500
     15 N           10.3010    -0.6990    -0.1170 n3         1 MIV      -0.711600
     16 C16         10.6480    -1.0600    -1.5150 c3         1 MIV       0.159600
     17 C15         11.4170    -0.0250     0.5860 c3         1 MIV       0.159600
     18 C13          7.7390    -0.8980    -0.3950 c6         1 MIV       0.159300
     19 O3           7.6910    -2.1930     0.2570 oh         1 MIV      -0.697000
     20 C9           3.4460     0.8210    -0.6850 c3         1 MIV      -0.069700
     21 C10          3.4780     0.7870    -2.2380 c3         1 MIV      -0.083100
     22 C8           2.0500     1.2180    -0.1200 c3         1 MIV      -0.067400
     23 C6           1.5180     2.6770    -0.3220 c3         1 MIV      -0.155700
     24 C7           0.9400     2.9630    -1.7340 c3         1 MIV      -0.081100
     25 C5           0.4420     2.9710     0.7510 c          1 MIV       0.574300
     26 O1           0.5500     3.9030     1.5380 o          1 MIV      -0.529100
     27 C4          -0.6890     2.0010     0.8290 ce         1 MIV      -0.326200
     28 C3          -1.6280     1.9260     1.8150 cf         1 MIV      -0.096000
     29 C2          -2.6110     0.8520     1.9300 cf         1 MIV      -0.190000
     30 C1          -2.9130    -0.0320     0.9460 c2         1 MIV      -0.174200
     31 O6          -1.7150    -2.5550     0.8570 os         1 MIV      -0.451100
     32 C25         -2.9520    -2.4800     1.6100 c3         1 MIV       0.181300
     33 C26         -3.6530    -3.8550     1.4580 c3         1 MIV      -0.081400
     34 C27         -2.8280    -5.0390     2.0090 c3         1 MIV      -0.089100
     35 C28         -3.7830    -1.2780     1.0590 c3         1 MIV      -0.072500
     36 C29         -5.0910    -1.0380     1.8680 c3         1 MIV       0.171600
     37 O7          -5.7820     0.1530     1.4270 os         1 MIV      -0.443000
     38 C30         -6.5290     0.0970     0.1920 c6         1 MIV       0.375300
     39 O11         -5.5800     0.1830    -0.8950 os         1 MIV      -0.498000
     40 C36         -6.1490     0.0940    -2.2160 c6         1 MIV       0.152300
     41 C37         -4.9500     0.0970    -3.1990 c3         1 MIV      -0.093100
     42 C35         -7.1450     1.2780    -2.4440 c6         1 MIV       0.130300
     43 O10         -7.7350     1.2350    -3.7650 oh         1 MIV      -0.702000
     44 C33         -8.2360     1.2270    -1.3270 c6         1 MIV       0.171300
     45 O9          -9.0640     0.0370    -1.5140 os         1 MIV      -0.445000
     46 C34        -10.2740    -0.0900    -0.7450 c3         1 MIV       0.154900
     47 C31         -7.5390     1.2950     0.0760 c6         1 MIV       0.136300
     48 O8          -8.5380     1.3870     1.1370 os         1 MIV      -0.443000
     49 C32         -8.0940     1.6780     2.4760 c3         1 MIV       0.147900
     50 H23          0.3110    -2.4900    -0.5500 ha         1 MIV       0.198000
     51 H22          2.0860    -1.4070     1.7430 ha         1 MIV       0.190000
     52 H20          2.6490    -1.7600    -1.2520 hc         1 MIV       0.068700
     53 H211         3.0470    -3.9610    -0.1080 hc         1 MIV       0.042700
     54 H212         4.5180    -3.2850    -0.8130 hc         1 MIV       0.042700
     55 H213         4.2450    -3.1810     0.9450 hc         1 MIV       0.042700
     56 H11          4.0660    -0.3540     1.0450 h1         1 MIV       0.047700
     57 H9           4.1250     1.6160    -0.3620 hc         1 MIV       0.072700
     58 H12          6.3370     0.1070     0.9440 h2         1 MIV       0.026700
     59 H13          7.8110    -1.0410    -1.4820 h1         1 MIV       0.052700
     60 H18          7.3680     2.2260     0.6890 h1         1 MIV       0.031700
     61 H191         6.3710     3.8030    -0.9760 hc         1 MIV       0.046700
     62 H192         8.1100     4.0960    -0.8290 hc         1 MIV       0.046700
     63 H193         7.4780     3.2190    -2.2330 hc         1 MIV       0.046700
     64 H171         9.0820     1.2840    -1.6900 hc         1 MIV       0.057200
     65 H172         9.6810     2.0340    -0.2120 hc         1 MIV       0.057200
     66 H14          8.8220     0.1400     1.1490 h1         1 MIV       0.063700
     67 H161        10.8030    -0.1640    -2.1300 h1         1 MIV       0.029533
     68 H162        11.5750    -1.6480    -1.5390 h1         1 MIV       0.029533
     69 H163         9.8620    -1.6690    -1.9780 h1         1 MIV       0.029533
     70 H151        11.1550     0.1720     1.6340 h1         1 MIV       0.029533
     71 H152        12.3150    -0.6580     0.5780 h1         1 MIV       0.029533
     72 H153        11.6720     0.9290     0.1060 h1         1 MIV       0.029533
     73 H3           6.8030    -2.5610     0.0400 ho         1 MIV       0.510000
     74 H101         2.6050     0.2620    -2.6440 hc         1 MIV       0.035367
     75 H102         3.5000     1.8010    -2.6480 hc         1 MIV       0.035367
     76 H103         4.3760     0.2850    -2.6140 hc         1 MIV       0.035367
     77 H81C         1.3100     0.5190    -0.5250 hc         1 MIV       0.045700
     78 H82C         2.0830     1.0390     0.9620 hc         1 MIV       0.045700
     79 H6           2.3400     3.3810    -0.1450 hc         1 MIV       0.072700
     80 H71C         0.2330     2.1830    -2.0410 hc         1 MIV       0.039367
     81 H72C         0.4070     3.9220    -1.7390 hc         1 MIV       0.039367
     82 H73C         1.7270     3.0330    -2.4890 hc         1 MIV       0.039367
     83 H4          -0.6940     1.2520     0.0470 ha         1 MIV       0.184000
     84 HA          -1.5910     2.6500     2.6340 ha         1 MIV       0.188000
     85 H2          -3.0740     0.7330     2.9120 ha         1 MIV       0.187000
     86 H1          -2.4700     0.0750    -0.0430 ha         1 MIV       0.171000
     87 H28         -4.0820    -1.5700     0.0460 hc         1 MIV       0.086700
     88 H25         -2.7650    -2.3180     2.6800 h1         1 MIV       0.067700
     89 H261        -4.6120    -3.8380     1.9890 hc         1 MIV       0.051700
     90 H262        -3.8800    -4.0360     0.4000 hc         1 MIV       0.051700
     91 H271        -3.3960    -5.9730     1.9190 hc         1 MIV       0.037367
     92 H272        -1.8890    -5.1580     1.4550 hc         1 MIV       0.037367
     93 H273        -2.5890    -4.8850     3.0680 hc         1 MIV       0.037367
     94 H291        -5.7520    -1.9100     1.7860 h1         1 MIV       0.048200
     95 H292        -4.8280    -0.9300     2.9280 h1         1 MIV       0.048200
     96 H30         -7.0830    -0.8520     0.1370 h2         1 MIV       0.048700
     97 H31         -6.9510     2.2230     0.1030 h1         1 MIV       0.060700
     98 H36         -6.6780    -0.8660    -2.3120 h1         1 MIV       0.063700
     99 H371        -4.2420    -0.7020    -2.9510 hc         1 MIV       0.045367
    100 H372        -5.2790    -0.0680    -4.2310 hc         1 MIV       0.045367
    101 H373        -4.4080     1.0490    -3.1640 hc         1 MIV       0.045367
    102 H35         -6.5870     2.2200    -2.3260 h1         1 MIV       0.041700
    103 H10         -7.0320     1.4870    -4.4070 ho         1 MIV       0.504000
    104 H33         -8.8770     2.1130    -1.4390 h1         1 MIV       0.059700
    105 H341       -10.9010    -0.8900    -1.1580 h1         1 MIV       0.031700
    106 H342       -10.0580    -0.3490     0.2980 h1         1 MIV       0.031700
    107 H343       -10.8540     0.8420    -0.7670 h1         1 MIV       0.031700
    108 H321        -7.6130     0.8060     2.9350 h1         1 MIV       0.033700
    109 H322        -7.3890     2.5190     2.4830 h1         1 MIV       0.033700
    110 H323        -8.9510     1.9490     3.1050 h1         1 MIV       0.033700
@<TRIPOS>BOND
     1     1     2 2   
     2     2     3 1   
     3     2    31 1   
     4     3     4 2   
     5     3    50 1   
     6     4     5 1   
     7     4    51 1   
     8     5     6 1   
     9     5     7 1   
    10     5    52 1   
    11     6    53 1   
    12     6    54 1   
    13     6    55 1   
    14     7     8 1   
    15     7    20 1   
    16     7    56 1   
    17     8     9 1   
    18     9    10 1   
    19     9    18 1   
    20     9    58 1   
    21    10    11 1   
    22    11    12 1   
    23    11    13 1   
    24    11    60 1   
    25    12    61 1   
    26    12    62 1   
    27    12    63 1   
    28    13    14 1   
    29    13    64 1   
    30    13    65 1   
    31    14    15 1   
    32    14    18 1   
    33    14    66 1   
    34    15    16 1   
    35    15    17 1   
    36    16    67 1   
    37    16    68 1   
    38    16    69 1   
    39    17    70 1   
    40    17    71 1   
    41    17    72 1   
    42    18    19 1   
    43    18    59 1   
    44    19    73 1   
    45    20    21 1   
    46    20    22 1   
    47    20    57 1   
    48    21    74 1   
    49    21    75 1   
    50    21    76 1   
    51    22    23 1   
    52    22    77 1   
    53    22    78 1   
    54    23    24 1   
    55    23    25 1   
    56    23    79 1   
    57    24    80 1   
    58    24    81 1   
    59    24    82 1   
    60    25    26 2   
    61    25    27 1   
    62    27    28 2   
    63    27    83 1   
    64    28    29 1   
    65    28    84 1   
    66    29    30 2   
    67    29    85 1   
    68    30    35 1   
    69    30    86 1   
    70    31    32 1   
    71    32    33 1   
    72    32    35 1   
    73    32    88 1   
    74    33    34 1   
    75    33    89 1   
    76    33    90 1   
    77    34    91 1   
    78    34    92 1   
    79    34    93 1   
    80    35    36 1   
    81    35    87 1   
    82    36    37 1   
    83    36    94 1   
    84    36    95 1   
    85    37    38 1   
    86    38    39 1   
    87    38    47 1   
    88    38    96 1   
    89    39    40 1   
    90    40    41 1   
    91    40    42 1   
    92    40    98 1   
    93    41    99 1   
    94    41   100 1   
    95    41   101 1   
    96    42    43 1   
    97    42    44 1   
    98    42   102 1   
    99    43   103 1   
   100    44    45 1   
   101    44    47 1   
   102    44   104 1   
   103    45    46 1   
   104    46   105 1   
   105    46   106 1   
   106    46   107 1   
   107    47    48 1   
   108    47    97 1   
   109    48    49 1   
   110    49   108 1   
   111    49   109 1   
   112    49   110 1   
@<TRIPOS>SUBSTRUCTURE
     1 MIV         1 TEMP              0 ****  ****    0 ROOT
