@<TRIPOS>MOLECULE
MIW
   86    90     1     0     0
SMALL
No Charge or Current Charge


@<TRIPOS>ATOM
      1 C3          24.2650    57.9790    15.3110 ca         1 MIW      -0.113800
      2 C4          25.3980    58.1890    14.5570 ca         1 MIW      -0.157000
      3 C5          24.4320    60.3520    15.3920 cc         1 MIW      -0.191600
      4 C6          24.1130    61.7630    15.7230 c          1 MIW       0.648300
      5 C1          24.4510    55.5760    14.9960 ca         1 MIW      -0.054300
      6 C2          23.7670    56.6870    15.5450 ca         1 MIW      -0.034000
      7 C9          21.6280    63.7490    14.5900 c3         1 MIW      -0.088433
      8 O6          24.7820    62.7130    15.3400 o          1 MIW      -0.645100
      9 C30         23.7190    59.2270    15.7850 cd         1 MIW      -0.084200
     10 S           25.8460    59.9100    14.3910 ss         1 MIW       0.033400
     11 C31         26.0910    57.1100    13.9920 ca         1 MIW      -0.137000
     12 C32         25.6120    55.8020    14.2130 ca         1 MIW      -0.020000
     13 C           23.9430    54.1460    15.2310 c3         1 MIW      -0.037700
     14 F1          24.9850    53.2820    15.3600 f          1 MIW      -0.159000
     15 P           22.8200    53.5230    13.8330 p5         1 MIW       1.256500
     16 O2          23.5750    53.5220    12.5430 o          1 MIW      -0.895500
     17 O1          21.6270    54.4160    13.7080 o          1 MIW      -0.895500
     18 O           22.3620    52.1320    14.1340 o          1 MIW      -0.895500
     19 F           23.2580    54.0570    16.4020 f          1 MIW      -0.159000
     20 N           22.9960    61.9280    16.5100 ns         1 MIW      -0.484900
     21 C7          22.4510    63.2280    16.9720 c3         1 MIW       0.059700
     22 C8          21.2240    63.6910    16.0910 c3         1 MIW      -0.045000
     23 C11         20.0300    62.7060    16.2400 c3         1 MIW      -0.088433
     24 C10         20.7420    65.1100    16.4980 c3         1 MIW      -0.088433
     25 C12         22.1290    63.1060    18.5020 c          1 MIW       0.599100
     26 O5          21.7840    62.0330    18.9910 o          1 MIW      -0.607100
     27 N1          22.2000    64.2520    19.3270 n          1 MIW      -0.397800
     28 C16         21.7100    64.2330    20.7350 c5         1 MIW       0.034700
     29 C15         21.9170    65.7280    21.1200 c5         1 MIW      -0.086400
     30 C14         23.2770    66.0270    20.4470 c5         1 MIW      -0.095400
     31 C13         23.0840    65.4060    19.0410 c5         1 MIW       0.113000
     32 C17         20.1890    63.8570    20.8860 c          1 MIW       0.616100
     33 O4          19.3360    64.0700    20.0270 o          1 MIW      -0.603100
     34 N2          19.8610    63.2740    22.1480 n          1 MIW      -0.242400
     35 C25         18.4760    62.7670    22.3260 c3         1 MIW       0.117000
     36 C26         17.5200    63.7920    22.9700 c3         1 MIW      -0.177400
     37 C27         17.9910    64.1760    24.3820 c          1 MIW       0.603100
     38 O3          17.7940    63.4060    25.3130 o          1 MIW      -0.611100
     39 N4          18.6480    65.4120    24.6030 n          1 MIW      -0.414800
     40 C29         18.8090    66.4310    23.5410 c3         1 MIW       0.088800
     41 C28         19.1400    65.7510    25.9580 c3         1 MIW       0.088800
     42 C18         20.8300    62.7910    23.0940 ca         1 MIW      -0.045000
     43 C24         21.2350    61.4380    23.0380 ca         1 MIW      -0.080000
     44 C23         22.2720    60.9690    23.8660 ca         1 MIW      -0.058000
     45 C22         22.9140    61.8800    24.7170 ca         1 MIW      -0.178000
     46 C20         22.5640    63.2140    24.7520 ca         1 MIW       0.084400
     47 C19         21.5320    63.6880    23.9280 ca         1 MIW      -0.065000
     48 S1          24.2300    61.5060    25.8170 ss         1 MIW       0.038800
     49 C21         24.1860    63.2340    26.2360 cc         1 MIW       0.374100
     50 N3          23.2860    64.0200    25.6230 nd         1 MIW      -0.532100
     51 H1          22.8670    56.5510    16.1400 ha         1 MIW       0.139000
     52 H2          22.4990    64.3990    14.4450 hc         1 MIW       0.038700
     53 H3          21.8750    62.7550    14.2000 hc         1 MIW       0.038700
     54 H4          20.8090    64.1440    13.9770 hc         1 MIW       0.038700
     55 H5          22.8210    59.2610    16.3960 ha         1 MIW       0.185000
     56 H6          26.9820    57.2760    13.3930 ha         1 MIW       0.094000
     57 H7          26.1440    54.9620    13.7730 ha         1 MIW       0.138000
     58 H10         22.5310    61.0870    16.8240 hn         1 MIW       0.331500
     59 H11         23.2420    63.9790    16.8660 h1         1 MIW       0.069700
     60 H12         19.6610    62.6780    17.2720 hc         1 MIW       0.038700
     61 H13         19.1920    63.0090    15.6000 hc         1 MIW       0.038700
     62 H14         20.3140    61.6870    15.9520 hc         1 MIW       0.038700
     63 H15         20.3880    65.1370    17.5340 hc         1 MIW       0.038700
     64 H16         21.5480    65.8440    16.3840 hc         1 MIW       0.038700
     65 H17         19.9090    65.4360    15.8630 hc         1 MIW       0.038700
     66 H18         22.3410    63.5610    21.3280 h1         1 MIW       0.086700
     67 H19         21.9450    65.9030    22.1990 hc         1 MIW       0.052200
     68 H20         21.1260    66.3660    20.7070 hc         1 MIW       0.052200
     69 H21         24.0980    65.5380    20.9850 hc         1 MIW       0.055200
     70 H22         23.5060    67.0980    20.4040 hc         1 MIW       0.055200
     71 H23         24.0440    65.1060    18.6000 h1         1 MIW       0.055200
     72 H24         22.5940    66.1180    18.3660 h1         1 MIW       0.055200
     73 H25         18.0670    62.4440    21.3600 h1         1 MIW       0.072200
     74 H26         18.5050    61.8730    22.9630 h1         1 MIW       0.072200
     75 H27         17.4500    64.6550    22.3030 hc         1 MIW       0.070200
     76 H28         16.5350    63.3190    23.0510 hc         1 MIW       0.070200
     77 H29         19.3890    67.2880    23.9060 h1         1 MIW       0.040367
     78 H30         19.3370    65.9990    22.6820 h1         1 MIW       0.040367
     79 H31         17.8230    66.7890    23.2190 h1         1 MIW       0.040367
     80 H32         18.2890    65.8680    26.6410 h1         1 MIW       0.040367
     81 H33         19.7890    64.9470    26.3280 h1         1 MIW       0.040367
     82 H34         19.7160    66.6850    25.9450 h1         1 MIW       0.040367
     83 H35         20.7480    60.7490    22.3500 ha         1 MIW       0.149000
     84 H36         22.5770    59.9250    23.8350 ha         1 MIW       0.139000
     85 H37         21.2640    64.7380    23.9620 ha         1 MIW       0.130000
     86 H38         24.8900    63.5940    26.9740 h5         1 MIW       0.050800
@<TRIPOS>BOND
     1     1     2 ar  
     2     1     6 ar  
     3     1     9 1   
     4     2    10 1   
     5     2    11 ar  
     6     3     4 1   
     7     3     9 2   
     8     3    10 1   
     9     4     8 2   
    10     4    20 1   
    11     5     6 ar  
    12     5    12 ar  
    13     5    13 1   
    14     6    51 1   
    15     7    22 1   
    16     7    52 1   
    17     7    53 1   
    18     7    54 1   
    19     9    55 1   
    20    11    12 ar  
    21    11    56 1   
    22    12    57 1   
    23    13    14 1   
    24    13    15 1   
    25    13    19 1   
    26    15    16 1   
    27    15    17 1   
    28    15    18 1   
    29    20    21 1   
    30    20    58 1   
    31    21    22 1   
    32    21    25 1   
    33    21    59 1   
    34    22    23 1   
    35    22    24 1   
    36    23    60 1   
    37    23    61 1   
    38    23    62 1   
    39    24    63 1   
    40    24    64 1   
    41    24    65 1   
    42    25    26 2   
    43    25    27 1   
    44    27    28 1   
    45    27    31 1   
    46    28    29 1   
    47    28    32 1   
    48    28    66 1   
    49    29    30 1   
    50    29    67 1   
    51    29    68 1   
    52    30    31 1   
    53    30    69 1   
    54    30    70 1   
    55    31    71 1   
    56    31    72 1   
    57    32    33 2   
    58    32    34 1   
    59    34    35 1   
    60    34    42 1   
    61    35    36 1   
    62    35    73 1   
    63    35    74 1   
    64    36    37 1   
    65    36    75 1   
    66    36    76 1   
    67    37    38 2   
    68    37    39 1   
    69    39    40 1   
    70    39    41 1   
    71    40    77 1   
    72    40    78 1   
    73    40    79 1   
    74    41    80 1   
    75    41    81 1   
    76    41    82 1   
    77    42    43 ar  
    78    42    47 ar  
    79    43    44 ar  
    80    43    83 1   
    81    44    45 ar  
    82    44    84 1   
    83    45    46 ar  
    84    45    48 1   
    85    46    47 ar  
    86    46    50 1   
    87    47    85 1   
    88    48    49 1   
    89    49    50 2   
    90    49    86 1   
@<TRIPOS>SUBSTRUCTURE
     1 MIW         1 TEMP              0 ****  ****    0 ROOT
