@<TRIPOS>MOLECULE
MIW
   86    90     1     0     0
SMALL
abcg2


@<TRIPOS>ATOM
      1 C3          23.9450    57.9630    15.8450 ca         1 MIW      -0.113800
      2 C4          25.3140    58.1330    16.1120 ca         1 MIW      -0.157000
      3 C5          24.0140    60.2200    16.3690 cc         1 MIW      -0.191600
      4 C6          23.6810    61.6230    16.6820 c          1 MIW       0.648300
      5 C1          24.3250    55.6290    15.4060 ca         1 MIW      -0.054300
      6 C2          23.4590    56.7010    15.4880 ca         1 MIW      -0.034000
      7 C9          20.9290    63.6670    14.5220 c3         1 MIW      -0.088433
      8 O6          24.5140    62.3470    17.2120 o          1 MIW      -0.645100
      9 C30         23.2200    59.1840    15.9990 cd         1 MIW      -0.084200
     10 S           25.6800    59.7640    16.5560 ss         1 MIW       0.033400
     11 C31         26.1970    57.0600    16.0170 ca         1 MIW      -0.137000
     12 C32         25.6950    55.8260    15.6610 ca         1 MIW      -0.020000
     13 C           23.8240    54.2780    14.9970 c3         1 MIW      -0.037700
     14 F1          24.5660    53.3250    15.6720 f          1 MIW      -0.159000
     15 P           23.8520    53.9510    13.1220 p5         1 MIW       1.256500
     16 O2          25.3190    54.1870    12.7780 o          1 MIW      -0.895500
     17 O1          22.8730    54.9970    12.5950 o          1 MIW      -0.895500
     18 O           23.3800    52.5050    12.9970 o          1 MIW      -0.895500
     19 F           22.5410    54.1250    15.4950 f          1 MIW      -0.159000
     20 N           22.4510    62.0390    16.3460 ns         1 MIW      -0.484900
     21 C7          21.9530    63.3230    16.7770 c3         1 MIW       0.059700
     22 C8          20.6430    63.6920    16.0270 c3         1 MIW      -0.045000
     23 C11         19.4830    62.7430    16.3400 c3         1 MIW      -0.088433
     24 C10         20.2280    65.1120    16.4140 c3         1 MIW      -0.088433
     25 C12         21.7790    63.2810    18.2990 c          1 MIW       0.599100
     26 O5          21.3270    62.2770    18.8370 o          1 MIW      -0.607100
     27 N1          22.1140    64.3590    19.0240 n          1 MIW      -0.397800
     28 C16         21.8980    64.3220    20.4620 c5         1 MIW       0.034700
     29 C15         22.3540    65.7090    20.9290 c5         1 MIW      -0.086400
     30 C14         23.4120    66.0880    19.9000 c5         1 MIW      -0.095400
     31 C13         22.8320    65.5560    18.5970 c5         1 MIW       0.113000
     32 C17         20.4240    64.0710    20.7690 c          1 MIW       0.616100
     33 O4          19.5500    64.5890    20.0940 o          1 MIW      -0.603100
     34 N2          20.1280    63.2850    21.8340 n          1 MIW      -0.242400
     35 C25         18.7300    62.9550    22.1030 c3         1 MIW       0.117000
     36 C26         17.9830    64.0350    22.8810 c3         1 MIW      -0.177400
     37 C27         18.5170    64.1770    24.2930 c          1 MIW       0.603100
     38 O3          18.4620    63.2160    25.0530 o          1 MIW      -0.611100
     39 N4          19.0290    65.3660    24.6700 n          1 MIW      -0.414800
     40 C29         19.2030    66.4880    23.7610 c3         1 MIW       0.088800
     41 C28         19.5420    65.5250    26.0170 c3         1 MIW       0.088800
     42 C18         21.1210    62.6950    22.6630 ca         1 MIW      -0.045000
     43 C24         21.4360    61.3390    22.4870 ca         1 MIW      -0.080000
     44 C23         22.3650    60.7140    23.2920 ca         1 MIW      -0.058000
     45 C22         22.9860    61.4690    24.2830 ca         1 MIW      -0.178000
     46 C20         22.6810    62.8260    24.4670 ca         1 MIW       0.084400
     47 C19         21.7350    63.4410    23.6480 ca         1 MIW      -0.065000
     48 S1          24.1720    60.9920    25.4460 ss         1 MIW       0.038800
     49 C21         24.1540    62.6120    26.0680 cc         1 MIW       0.374100
     50 N3          23.3620    63.4420    25.4900 nd         1 MIW      -0.532100
     51 H1          22.4030    56.5820    15.2890 ha         1 MIW       0.139000
     52 H2          21.7740    64.3100    14.2680 hc         1 MIW       0.038700
     53 H3          21.1460    62.6650    14.1500 hc         1 MIW       0.038700
     54 H4          20.0570    64.0310    13.9760 hc         1 MIW       0.038700
     55 H5          22.1500    59.2490    15.8510 ha         1 MIW       0.185000
     56 H6          27.2530    57.1860    16.2160 ha         1 MIW       0.094000
     57 H7          26.3800    54.9930    15.5890 ha         1 MIW       0.138000
     58 H10         21.7880    61.3660    15.9960 hn         1 MIW       0.331500
     59 H11         22.6900    64.0790    16.4990 h1         1 MIW       0.069700
     60 H12         19.1710    62.8040    17.3820 hc         1 MIW       0.038700
     61 H13         18.6250    63.0200    15.7250 hc         1 MIW       0.038700
     62 H14         19.7050    61.6980    16.1170 hc         1 MIW       0.038700
     63 H15         19.9960    65.2000    17.4760 hc         1 MIW       0.038700
     64 H16         21.0080    65.8370    16.1720 hc         1 MIW       0.038700
     65 H17         19.3330    65.3970    15.8590 hc         1 MIW       0.038700
     66 H18         22.5290    63.5480    20.9060 h1         1 MIW       0.086700
     67 H19         22.7330    65.6870    21.9490 hc         1 MIW       0.052200
     68 H20         21.5220    66.4150    20.8940 hc         1 MIW       0.052200
     69 H21         24.3560    65.5880    20.1250 hc         1 MIW       0.055200
     70 H22         23.5990    67.1600    19.8590 hc         1 MIW       0.055200
     71 H23         23.6050    65.3170    17.8680 h1         1 MIW       0.055200
     72 H24         22.1520    66.2830    18.1480 h1         1 MIW       0.055200
     73 H25         18.2200    62.7730    21.1590 h1         1 MIW       0.072200
     74 H26         18.7140    62.0200    22.6620 h1         1 MIW       0.072200
     75 H27         17.9730    64.9600    22.3110 hc         1 MIW       0.070200
     76 H28         16.9420    63.7130    22.9710 hc         1 MIW       0.070200
     77 H29         19.7680    67.2630    24.2730 h1         1 MIW       0.040367
     78 H30         19.7670    66.2150    22.8700 h1         1 MIW       0.040367
     79 H31         18.2500    66.9200    23.4530 h1         1 MIW       0.040367
     80 H32         19.0650    64.8220    26.6920 h1         1 MIW       0.040367
     81 H33         20.6220    65.3620    26.0580 h1         1 MIW       0.040367
     82 H34         19.3360    66.5340    26.3700 h1         1 MIW       0.040367
     83 H35         20.9450    60.7800    21.7010 ha         1 MIW       0.149000
     84 H36         22.6040    59.6690    23.1480 ha         1 MIW       0.139000
     85 H37         21.4940    64.4850    23.7930 ha         1 MIW       0.130000
     86 H38         24.7930    62.8740    26.9010 h5         1 MIW       0.050800
@<TRIPOS>BOND
     1     1     2 ar  
     2     1     6 ar  
     3     1     9 1   
     4     2    10 1   
     5     2    11 ar  
     6     3     4 1   
     7     3     9 2   
     8     3    10 1   
     9     4     8 2   
    10     4    20 1   
    11     5     6 ar  
    12     5    12 ar  
    13     5    13 1   
    14     6    51 1   
    15     7    22 1   
    16     7    52 1   
    17     7    53 1   
    18     7    54 1   
    19     9    55 1   
    20    11    12 ar  
    21    11    56 1   
    22    12    57 1   
    23    13    14 1   
    24    13    15 1   
    25    13    19 1   
    26    15    16 1   
    27    15    17 1   
    28    15    18 1   
    29    20    21 1   
    30    20    58 1   
    31    21    22 1   
    32    21    25 1   
    33    21    59 1   
    34    22    23 1   
    35    22    24 1   
    36    23    60 1   
    37    23    61 1   
    38    23    62 1   
    39    24    63 1   
    40    24    64 1   
    41    24    65 1   
    42    25    26 2   
    43    25    27 1   
    44    27    28 1   
    45    27    31 1   
    46    28    29 1   
    47    28    32 1   
    48    28    66 1   
    49    29    30 1   
    50    29    67 1   
    51    29    68 1   
    52    30    31 1   
    53    30    69 1   
    54    30    70 1   
    55    31    71 1   
    56    31    72 1   
    57    32    33 2   
    58    32    34 1   
    59    34    35 1   
    60    34    42 1   
    61    35    36 1   
    62    35    73 1   
    63    35    74 1   
    64    36    37 1   
    65    36    75 1   
    66    36    76 1   
    67    37    38 2   
    68    37    39 1   
    69    39    40 1   
    70    39    41 1   
    71    40    77 1   
    72    40    78 1   
    73    40    79 1   
    74    41    80 1   
    75    41    81 1   
    76    41    82 1   
    77    42    43 ar  
    78    42    47 ar  
    79    43    44 ar  
    80    43    83 1   
    81    44    45 ar  
    82    44    84 1   
    83    45    46 ar  
    84    45    48 1   
    85    46    47 ar  
    86    46    50 1   
    87    47    85 1   
    88    48    49 1   
    89    49    50 2   
    90    49    86 1   
@<TRIPOS>SUBSTRUCTURE
     1 MIW         1 TEMP              0 ****  ****    0 ROOT
