@<TRIPOS>MOLECULE
MIX
   60    62     1     0     0
SMALL
bcc


@<TRIPOS>ATOM
      1 OAC          7.9320     4.2420     1.0910 oh         1 MIX      -0.593800
      2 CAK          7.9970     3.8380    -0.2620 c3         1 MIX       0.137900
      3 CAM          7.2040     2.5630    -0.4320 c3         1 MIX       0.160800
      4 NAS          5.7910     2.7710    -0.1860 n7         1 MIX      -0.800200
      5 CAO          5.0140     1.5600    -0.3310 c3         1 MIX       0.143300
      6 CAQ          3.5320     1.8720    -0.1930 c3         1 MIX       0.226800
      7 NAU          2.7730     0.6460    -0.2590 nu         1 MIX      -0.773600
      8 CAY          1.4350     0.5610    -0.1840 ca         1 MIX       0.234100
      9 CAI          0.6770     1.7660    -0.1180 ca         1 MIX      -0.141500
     10 CAJ         -0.6750     1.7650    -0.0630 ca         1 MIX      -0.141500
     11 CBE          0.7220    -0.6590    -0.1610 ca         1 MIX      -0.211600
     12 CBA          1.4430    -1.9070    -0.1790 c          1 MIX       0.624800
     13 OAA          2.6950    -1.9460    -0.2520 o          1 MIX      -0.645600
     14 CBC          0.7140    -3.1680    -0.1000 ca         1 MIX      -0.209100
     15 CAW          1.4190    -4.3780    -0.0840 ca         1 MIX       0.176100
     16 OAE          2.7490    -4.4500    -0.1410 oh         1 MIX      -0.515100
     17 CAG          0.7020    -5.5800    -0.0010 ca         1 MIX      -0.123500
     18 CAH         -0.6690    -5.5820     0.0600 ca         1 MIX      -0.123500
     19 CAX         -1.3950    -4.3830     0.0400 ca         1 MIX       0.176100
     20 OAF         -2.7240    -4.4580     0.0990 oh         1 MIX      -0.515100
     21 CBD         -0.6970    -3.1700    -0.0380 ca         1 MIX      -0.209100
     22 CBB         -1.4350    -1.9110    -0.0560 c          1 MIX       0.624800
     23 OAB         -2.6870    -1.9530    -0.0210 o          1 MIX      -0.645600
     24 CBF         -0.7180    -0.6610    -0.1020 ca         1 MIX      -0.211600
     25 CAZ         -1.4340     0.5570    -0.0690 ca         1 MIX       0.234100
     26 NAV         -2.7740     0.6390    -0.0390 nu         1 MIX      -0.773600
     27 CAR         -3.5280     1.8640     0.0920 c3         1 MIX       0.226800
     28 CAP         -5.0160     1.5550     0.0380 c3         1 MIX       0.143300
     29 NAT         -5.7790     2.7670     0.2320 n7         1 MIX      -0.800200
     30 CAN         -7.2030     2.5670     0.0450 c3         1 MIX       0.160800
     31 CAL         -7.9980     3.8270     0.3050 c3         1 MIX       0.137900
     32 OAD         -7.6300     4.8260    -0.6180 oh         1 MIX      -0.593800
     33 HAC          8.3770     5.0900     1.1730 ho         1 MIX       0.403000
     34 HAK1         7.5880     4.6060    -0.9300 h1         1 MIX       0.022450
     35 HAK2         9.0310     3.6510    -0.5770 h1         1 MIX       0.022450
     36 HAM1         7.3330     2.2280    -1.4660 h1         1 MIX       0.038950
     37 HAM2         7.6390     1.7740     0.2030 h1         1 MIX       0.038950
     38 HAS          5.6710     3.1280     0.7550 hn         1 MIX       0.359300
     39 HAO1         5.2000     1.1450    -1.3250 h1         1 MIX       0.040200
     40 HAO2         5.2930     0.7780     0.3940 h1         1 MIX       0.040200
     41 HAQ1         3.3510     2.3870     0.7580 h1         1 MIX       0.047450
     42 HAQ2         3.2410     2.5600    -0.9910 h1         1 MIX       0.047450
     43 HAU          3.2680    -0.2360    -0.2730 hn         1 MIX       0.477800
     44 HAI          1.1890     2.7190    -0.1120 ha         1 MIX       0.139500
     45 HAJ         -1.1860     2.7160    -0.0130 ha         1 MIX       0.139500
     46 HAE          3.0710    -3.5160    -0.2010 ho         1 MIX       0.479000
     47 HAG          1.2460    -6.5160     0.0150 ha         1 MIX       0.152000
     48 HAH         -1.2070    -6.5190     0.1260 ha         1 MIX       0.152000
     49 HAF         -3.0540    -3.5260     0.0680 ho         1 MIX       0.479000
     50 HAV         -3.2650    -0.2440     0.0020 hn         1 MIX       0.477800
     51 HAR1        -3.2870     2.3660     1.0360 h1         1 MIX       0.047450
     52 HAR2        -3.2870     2.5620    -0.7150 h1         1 MIX       0.047450
     53 HAP1        -5.2560     1.1460    -0.9480 h1         1 MIX       0.040200
     54 HAP2        -5.2560     0.7680     0.7710 h1         1 MIX       0.040200
     55 HAT         -5.6160     3.1100     1.1720 hn         1 MIX       0.359300
     56 HAN1        -7.3750     2.2340    -0.9830 h1         1 MIX       0.038950
     57 HAN2        -7.6140     1.7800     0.6960 h1         1 MIX       0.038950
     58 HAL1        -9.0630     3.5740     0.2280 h1         1 MIX       0.022450
     59 HAL2        -7.8290     4.1540     1.3410 h1         1 MIX       0.022450
     60 HAD         -8.1750     5.6000    -0.4490 ho         1 MIX       0.403000
@<TRIPOS>BOND
     1     1     2 1   
     2     1    33 1   
     3     2     3 1   
     4     2    34 1   
     5     2    35 1   
     6     3     4 1   
     7     3    36 1   
     8     3    37 1   
     9     4     5 1   
    10     4    38 1   
    11     5     6 1   
    12     5    39 1   
    13     5    40 1   
    14     6     7 1   
    15     6    41 1   
    16     6    42 1   
    17     7     8 1   
    18     7    43 1   
    19     8     9 ar  
    20     8    11 ar  
    21     9    10 ar  
    22     9    44 1   
    23    10    25 ar  
    24    10    45 1   
    25    11    12 1   
    26    11    24 ar  
    27    12    13 2   
    28    12    14 1   
    29    14    15 ar  
    30    14    21 ar  
    31    15    16 1   
    32    15    17 ar  
    33    16    46 1   
    34    17    18 ar  
    35    17    47 1   
    36    18    19 ar  
    37    18    48 1   
    38    19    20 1   
    39    19    21 ar  
    40    20    49 1   
    41    21    22 1   
    42    22    23 2   
    43    22    24 1   
    44    24    25 ar  
    45    25    26 1   
    46    26    27 1   
    47    26    50 1   
    48    27    28 1   
    49    27    51 1   
    50    27    52 1   
    51    28    29 1   
    52    28    53 1   
    53    28    54 1   
    54    29    30 1   
    55    29    55 1   
    56    30    31 1   
    57    30    56 1   
    58    30    57 1   
    59    31    32 1   
    60    31    58 1   
    61    31    59 1   
    62    32    60 1   
@<TRIPOS>SUBSTRUCTURE
     1 MIX         1 TEMP              0 ****  ****    0 ROOT
