@<TRIPOS>MOLECULE
MIX
   60    62     1     0     0
SMALL
No Charge or Current Charge


@<TRIPOS>ATOM
      1 OAC          8.1360     4.5140     0.5660 oh         1 MIX      -0.656000
      2 CAK          8.3330     3.7000    -0.6060 c3         1 MIX       0.161100
      3 CAM          7.4920     2.3960    -0.5240 c3         1 MIX       0.160800
      4 NAS          6.0480     2.6920    -0.3730 n7         1 MIX      -0.855400
      5 CAO          5.1840     1.5140    -0.1110 c3         1 MIX       0.143300
      6 CAQ          3.6840     1.9030     0.0030 c3         1 MIX       0.226800
      7 NAU          2.8390     0.7210     0.2660 nu         1 MIX      -0.807200
      8 CAY          1.4440     0.6670     0.3010 ca         1 MIX       0.372500
      9 CAI          0.7390     1.8470     0.5820 ca         1 MIX      -0.123500
     10 CAJ         -0.6560     1.8520     0.6400 ca         1 MIX      -0.123500
     11 CBE          0.7300    -0.5480     0.0840 ca         1 MIX      -0.211600
     12 CBA          1.4750    -1.8430    -0.2030 c          1 MIX       0.624800
     13 OAA          2.6850    -1.8730    -0.4190 o          1 MIX      -0.645600
     14 CBC          0.6990    -3.1420    -0.2370 ca         1 MIX      -0.209100
     15 CAW          1.3810    -4.3850    -0.3390 ca         1 MIX       0.176100
     16 OAE          2.7400    -4.4380    -0.4090 oh         1 MIX      -0.554100
     17 CAG          0.6730    -5.5920    -0.3710 ca         1 MIX      -0.105500
     18 CAH         -0.7240    -5.5870    -0.3130 ca         1 MIX      -0.105500
     19 CAX         -1.4180    -4.3740    -0.2220 ca         1 MIX       0.176100
     20 OAF         -2.7780    -4.4180    -0.1780 oh         1 MIX      -0.554100
     21 CBD         -0.7210    -3.1370    -0.1780 ca         1 MIX      -0.209100
     22 CBB         -1.4810    -1.8320    -0.0790 c          1 MIX       0.624800
     23 OAB         -2.7060    -1.8530    -0.1930 o          1 MIX      -0.645600
     24 CBF         -0.7060    -0.5420     0.1440 ca         1 MIX      -0.211600
     25 CAZ         -1.3900     0.6770     0.4200 ca         1 MIX       0.372500
     26 NAV         -2.7830     0.7420     0.5010 nu         1 MIX      -0.807200
     27 CAR         -3.6380     1.9300     0.3110 c3         1 MIX       0.226800
     28 CAP         -5.1450     1.5530     0.3220 c3         1 MIX       0.143300
     29 NAT         -6.0210     2.7370     0.1350 n7         1 MIX      -0.855400
     30 CAN         -7.4770     2.4410     0.0680 c3         1 MIX       0.160800
     31 CAL         -8.3480     3.7240    -0.0860 c3         1 MIX       0.161100
     32 OAD         -8.1040     4.3890    -1.3400 oh         1 MIX      -0.656000
     33 HAC          8.6710     5.3280     0.4400 ho         1 MIX       0.442000
     34 HAK1         8.0440     4.2560    -1.5070 h1         1 MIX       0.022450
     35 HAK2         9.3930     3.4310    -0.7070 h1         1 MIX       0.022450
     36 HAM1         7.6680     1.8010    -1.4310 h1         1 MIX       0.038950
     37 HAM2         7.8540     1.8070     0.3300 h1         1 MIX       0.038950
     38 HAS          5.9680     3.3430     0.4200 hn         1 MIX       0.414500
     39 HAO1         5.2910     0.7810    -0.9220 h1         1 MIX       0.040200
     40 HAO2         5.4890     1.0210     0.8220 h1         1 MIX       0.040200
     41 HAQ1         3.5660     2.6360     0.8120 h1         1 MIX       0.047450
     42 HAQ2         3.3700     2.3790    -0.9360 h1         1 MIX       0.047450
     43 HAU          3.2630    -0.1840     0.0530 hn         1 MIX       0.373000
     44 HAI          1.2700     2.7750     0.7660 ha         1 MIX       0.121500
     45 HAJ         -1.1620     2.7850     0.8680 ha         1 MIX       0.121500
     46 HAE          3.0390    -3.4880    -0.4370 ho         1 MIX       0.518000
     47 HAG          1.2100    -6.5340    -0.4470 ha         1 MIX       0.134000
     48 HAH         -1.2730    -6.5250    -0.3430 ha         1 MIX       0.134000
     49 HAF         -3.0720    -3.4660    -0.1810 ho         1 MIX       0.518000
     50 HAV         -3.2300    -0.1600     0.3240 hn         1 MIX       0.373000
     51 HAR1        -3.4480     2.6600     1.1090 h1         1 MIX       0.047450
     52 HAR2        -3.4000     2.4060    -0.6500 h1         1 MIX       0.047450
     53 HAP1        -5.3240     0.8220    -0.4790 h1         1 MIX       0.040200
     54 HAP2        -5.3760     1.0580     1.2760 h1         1 MIX       0.040200
     55 HAT         -5.8630     3.3880     0.9150 hn         1 MIX       0.414500
     56 HAN1        -7.6920     1.7660    -0.7720 h1         1 MIX       0.038950
     57 HAN2        -7.7950     1.9260     0.9850 h1         1 MIX       0.038950
     58 HAL1        -9.4050     3.4360    -0.0180 h1         1 MIX       0.022450
     59 HAL2        -8.1380     4.4020     0.7520 h1         1 MIX       0.022450
     60 HAD         -8.6400     5.2120    -1.3350 ho         1 MIX       0.442000
@<TRIPOS>BOND
     1     1     2 1   
     2     1    33 1   
     3     2     3 1   
     4     2    34 1   
     5     2    35 1   
     6     3     4 1   
     7     3    36 1   
     8     3    37 1   
     9     4     5 1   
    10     4    38 1   
    11     5     6 1   
    12     5    39 1   
    13     5    40 1   
    14     6     7 1   
    15     6    41 1   
    16     6    42 1   
    17     7     8 1   
    18     7    43 1   
    19     8     9 ar  
    20     8    11 ar  
    21     9    10 ar  
    22     9    44 1   
    23    10    25 ar  
    24    10    45 1   
    25    11    12 1   
    26    11    24 ar  
    27    12    13 2   
    28    12    14 1   
    29    14    15 ar  
    30    14    21 ar  
    31    15    16 1   
    32    15    17 ar  
    33    16    46 1   
    34    17    18 ar  
    35    17    47 1   
    36    18    19 ar  
    37    18    48 1   
    38    19    20 1   
    39    19    21 ar  
    40    20    49 1   
    41    21    22 1   
    42    22    23 2   
    43    22    24 1   
    44    24    25 ar  
    45    25    26 1   
    46    26    27 1   
    47    26    50 1   
    48    27    28 1   
    49    27    51 1   
    50    27    52 1   
    51    28    29 1   
    52    28    53 1   
    53    28    54 1   
    54    29    30 1   
    55    29    55 1   
    56    30    31 1   
    57    30    56 1   
    58    30    57 1   
    59    31    32 1   
    60    31    58 1   
    61    31    59 1   
    62    32    60 1   
@<TRIPOS>SUBSTRUCTURE
     1 MIX         1 TEMP              0 ****  ****    0 ROOT
