@<TRIPOS>MOLECULE
MIZ
   34    35     1     0     0
SMALL
abcg2


@<TRIPOS>ATOM
      1 CAA          0.9850     2.4910     0.6410 c3         1 MIZ      -0.084300
      2 CAE          1.6820     1.2080     0.3340 ca         1 MIZ       0.047400
      3 CAD          3.0270     1.2000     0.0340 ca         1 MIZ      -0.153000
      4 CAC          3.7000     0.0140    -0.2280 ca         1 MIZ       0.064700
      5 CAB          5.1590    -0.0040    -0.5320 c3         1 MIZ      -0.079800
      6 CAF          2.9620    -1.1620    -0.1740 ca         1 MIZ      -0.153000
      7 CAG          1.6170    -1.1490     0.1220 ca         1 MIZ      -0.003300
      8 CAN          0.8440    -2.4230     0.1970 c3         1 MIZ      -0.084300
      9 NAH          1.0020     0.0350     0.3690 na         1 MIZ       0.039300
     10 CAI         -0.4510     0.0480     0.6150 c3         1 MIZ       0.021600
     11 CAJ         -1.2440     0.2090    -0.6820 c3         1 MIZ      -0.094700
     12 CAK         -2.7000     0.0360    -0.4160 cc         1 MIZ       0.195300
     13 CAO         -3.7090     0.9460    -0.5640 cd         1 MIZ      -0.191000
     14 NAP         -4.8430     0.2930    -0.1770 na         1 MIZ      -0.286500
     15 CAM         -4.4900    -0.9540     0.1880 cd         1 MIZ       0.418400
     16 NAL         -3.2030    -1.1450     0.0560 nc         1 MIZ      -0.692000
     17 HAA          0.1230     2.6660    -0.0000 hc         1 MIZ       0.088033
     18 HAAA         0.6410     2.5150     1.6770 hc         1 MIZ       0.088033
     19 HAAB         1.6770     3.3170     0.5030 hc         1 MIZ       0.088033
     20 HAD          3.5520     2.1440     0.0010 ha         1 MIZ       0.166000
     21 HAB          5.7140    -0.3020     0.3600 hc         1 MIZ       0.080700
     22 HABA         5.3900    -0.7270    -1.3130 hc         1 MIZ       0.080700
     23 HABB         5.5190     0.9760    -0.8370 hc         1 MIZ       0.080700
     24 HAF          3.4360    -2.1140    -0.3710 ha         1 MIZ       0.166000
     25 HAN          0.5210    -2.6240     1.2200 hc         1 MIZ       0.088033
     26 HANA        -0.0430    -2.4170    -0.4350 hc         1 MIZ       0.088033
     27 HANB         1.4750    -3.2490    -0.1200 hc         1 MIZ       0.088033
     28 HAI         -0.7230    -0.8790     1.1100 h1         1 MIZ       0.099200
     29 HAIA        -0.6790     0.8450     1.3160 h1         1 MIZ       0.099200
     30 HAJ         -1.0580     1.1880    -1.1250 hc         1 MIZ       0.062200
     31 HAJA        -0.9070    -0.5310    -1.4130 hc         1 MIZ       0.062200
     32 HAO         -3.7150     1.9670    -0.9070 h4         1 MIZ       0.167000
     33 HNAP        -5.7750     0.6740    -0.1670 hn         1 MIZ       0.371000
     34 HAM         -5.2080    -1.6790     0.5370 h5         1 MIZ       0.072100
@<TRIPOS>BOND
     1     1     2 1   
     2     1    17 1   
     3     1    18 1   
     4     1    19 1   
     5     2     3 ar  
     6     2     9 2   
     7     3     4 ar  
     8     3    20 1   
     9     4     5 1   
    10     4     6 ar  
    11     5    21 1   
    12     5    22 1   
    13     5    23 1   
    14     6     7 ar  
    15     6    24 1   
    16     7     8 1   
    17     7     9 1   
    18     8    25 1   
    19     8    26 1   
    20     8    27 1   
    21     9    10 1   
    22    10    11 1   
    23    10    28 1   
    24    10    29 1   
    25    11    12 1   
    26    11    30 1   
    27    11    31 1   
    28    12    13 2   
    29    12    16 1   
    30    13    14 1   
    31    13    32 1   
    32    14    15 1   
    33    14    33 1   
    34    15    16 2   
    35    15    34 1   
@<TRIPOS>SUBSTRUCTURE
     1 MIZ         1 TEMP              0 ****  ****    0 ROOT
