@<TRIPOS>MOLECULE
MIZ
   34    35     1     0     0
SMALL
No Charge or Current Charge


@<TRIPOS>ATOM
      1 CAA          1.0000     2.4900     0.9600 c3         1 MIZ      -0.084300
      2 CAE          1.6640     1.1900     0.5050 ca         1 MIZ       0.047400
      3 CAD          2.9830     1.2390     0.0130 ca         1 MIZ      -0.153000
      4 CAC          3.6520     0.0660    -0.3650 ca         1 MIZ       0.064700
      5 CAB          5.0780     0.1250    -0.8880 c3         1 MIZ      -0.079800
      6 CAF          3.0010    -1.1670    -0.2120 ca         1 MIZ      -0.153000
      7 CAG          1.6820    -1.2290     0.2780 ca         1 MIZ      -0.003300
      8 CAN          1.0380    -2.6020     0.4830 c3         1 MIZ      -0.084300
      9 NAH          0.9740    -0.0420     0.5690 na         1 MIZ       0.039300
     10 CAI         -0.5070    -0.0670     0.7090 c3         1 MIZ       0.021600
     11 CAJ         -1.2450     0.0500    -0.6430 c3         1 MIZ      -0.094700
     12 CAK         -2.7390     0.0240    -0.4880 cc         1 MIZ       0.195300
     13 CAO         -3.6160     1.0560    -0.6770 cd         1 MIZ      -0.191000
     14 NAP         -4.8630     0.5130    -0.4070 na         1 MIZ      -0.286500
     15 CAM         -4.6800    -0.8150    -0.0700 cd         1 MIZ       0.418400
     16 NAL         -3.3870    -1.1180    -0.1180 nc         1 MIZ      -0.692000
     17 HAA          0.1450     2.7490     0.3240 hc         1 MIZ       0.088033
     18 HAAA         0.6480     2.4150     1.9950 hc         1 MIZ       0.088033
     19 HAAB         1.6960     3.3360     0.9220 hc         1 MIZ       0.088033
     20 HAD          3.4990     2.1940    -0.0620 ha         1 MIZ       0.166000
     21 HAB          5.7980     0.0510    -0.0650 hc         1 MIZ       0.080700
     22 HABA         5.2820    -0.6940    -1.5870 hc         1 MIZ       0.080700
     23 HABB         5.2710     1.0640    -1.4190 hc         1 MIZ       0.080700
     24 HAF          3.5320    -2.0840    -0.4630 ha         1 MIZ       0.166000
     25 HAN          0.6910    -2.7290     1.5150 hc         1 MIZ       0.088033
     26 HANA         0.1810    -2.7480    -0.1860 hc         1 MIZ       0.088033
     27 HANB         1.7430    -3.4170     0.2820 hc         1 MIZ       0.088033
     28 HAI         -0.8180    -0.9910     1.2100 h1         1 MIZ       0.099200
     29 HAIA        -0.8350     0.7440     1.3700 h1         1 MIZ       0.099200
     30 HAJ         -0.9450     0.9790    -1.1420 hc         1 MIZ       0.062200
     31 HAJA        -0.9330    -0.7690    -1.3020 hc         1 MIZ       0.062200
     32 HAO         -3.4490     2.0870    -0.9700 h4         1 MIZ       0.167000
     33 HNAP        -5.7600     0.9840    -0.4440 hn         1 MIZ       0.371000
     34 HAM         -5.5020    -1.4730     0.1880 h5         1 MIZ       0.072100
@<TRIPOS>BOND
     1     1     2 1   
     2     1    17 1   
     3     1    18 1   
     4     1    19 1   
     5     2     3 ar  
     6     2     9 2   
     7     3     4 ar  
     8     3    20 1   
     9     4     5 1   
    10     4     6 ar  
    11     5    21 1   
    12     5    22 1   
    13     5    23 1   
    14     6     7 ar  
    15     6    24 1   
    16     7     8 1   
    17     7     9 1   
    18     8    25 1   
    19     8    26 1   
    20     8    27 1   
    21     9    10 1   
    22    10    11 1   
    23    10    28 1   
    24    10    29 1   
    25    11    12 1   
    26    11    30 1   
    27    11    31 1   
    28    12    13 2   
    29    12    16 1   
    30    13    14 1   
    31    13    32 1   
    32    14    15 1   
    33    14    33 1   
    34    15    16 2   
    35    15    34 1   
@<TRIPOS>SUBSTRUCTURE
     1 MIZ         1 TEMP              0 ****  ****    0 ROOT
