@<TRIPOS>MOLECULE
MJ1
   39    40     1     0     0
SMALL
bcc


@<TRIPOS>ATOM
      1 C1           1.8220     0.5800    -0.0110 cc         1 MJ1       0.536900
      2 C2           1.2660    -1.4170     0.7930 c          1 MJ1       0.680700
      3 C3           4.1350    -1.5160    -0.8280 c          1 MJ1       0.915600
      4 CB1          3.1480     2.4580     0.9100 c3         1 MJ1       0.097100
      5 CB2         -1.1700    -1.0810     0.4500 ce         1 MJ1      -0.075200
      6 CG1          4.0740     3.6240     0.6070 c3         1 MJ1      -0.132100
      7 OG1          1.9780     2.8670     1.5810 oh         1 MJ1      -0.590800
      8 CG2         -2.3960    -0.4090     0.0740 ca         1 MJ1      -0.072800
      9 CD1         -2.4610     0.8870    -0.4630 ca         1 MJ1      -0.053000
     10 CD2         -3.6160    -1.0650     0.2460 ca         1 MJ1       0.138900
     11 CE1         -3.6590     1.4800    -0.8010 ca         1 MJ1      -0.173000
     12 CE2         -4.8180    -0.4790    -0.0880 ca         1 MJ1      -0.030100
     13 CZ          -4.8660     0.8050    -0.6190 ca         1 MJ1       0.124100
     14 OH          -6.0110     1.4070    -0.9530 oh         1 MJ1      -0.492100
     15 CA1          2.6980     1.7360    -0.3810 c3         1 MJ1       0.152200
     16 CA2          0.0920    -0.6260     0.3480 cd         1 MJ1       0.055400
     17 CA3          3.6920    -1.0060     0.5640 c3         1 MJ1      -0.065000
     18 F1          -5.9600    -1.1570     0.1000 f          1 MJ1      -0.148900
     19 F2          -3.6510    -2.3010     0.7470 f          1 MJ1      -0.127900
     20 N1           2.0090     2.5580    -1.3500 n8         1 MJ1      -0.861800
     21 N2           0.5410     0.5880    -0.1470 nd         1 MJ1      -0.648300
     22 N3           2.3220    -0.5580     0.5870 n          1 MJ1      -0.376300
     23 O2           1.3320    -2.5460     1.2330 o          1 MJ1      -0.585500
     24 O3           3.3100    -1.4190    -1.7500 o          1 MJ1      -0.816800
     25 H2           3.7100     1.7390     1.5220 h1         1 MJ1       0.050700
     26 H3          -1.2650    -2.0740     0.8720 ha         1 MJ1       0.148000
     27 H4           4.4380     4.0720     1.5330 hc         1 MJ1       0.038367
     28 H5           4.9470     3.2940     0.0420 hc         1 MJ1       0.038367
     29 H6           3.5700     4.4040     0.0360 hc         1 MJ1       0.038367
     30 H7           2.2370     3.3520     2.3720 ho         1 MJ1       0.393000
     31 H9          -1.5400     1.4310    -0.6120 ha         1 MJ1       0.188000
     32 H10         -3.6750     2.4800    -1.2140 ha         1 MJ1       0.147000
     33 H11          3.6030     1.3460    -0.8570 h1         1 MJ1       0.110700
     34 H12          3.7970    -1.8030     1.3020 h1         1 MJ1       0.044200
     35 H13          4.3540    -0.2040     0.8920 h1         1 MJ1       0.044200
     36 H14          1.1980     2.9880    -0.9250 hn         1 MJ1       0.344300
     37 H15          2.6140     3.3080    -1.6550 hn         1 MJ1       0.344300
     38 O1           5.2930    -1.9670    -0.8690 o          1 MJ1      -0.816800
     39 H1          -6.7740     0.8350    -0.8010 ho         1 MJ1       0.434000
@<TRIPOS>BOND
     1     1    15 1   
     2     1    21 2   
     3     1    22 1   
     4     2    16 1   
     5     2    22 1   
     6     2    23 2   
     7     3    17 1   
     8     3    24 1   
     9     3    38 1   
    10     4     6 1   
    11     4     7 1   
    12     4    15 1   
    13     4    25 1   
    14     5     8 1   
    15     5    16 2   
    16     5    26 1   
    17     6    27 1   
    18     6    28 1   
    19     6    29 1   
    20     7    30 1   
    21     8     9 ar  
    22     8    10 ar  
    23     9    11 ar  
    24     9    31 1   
    25    10    12 ar  
    26    10    19 1   
    27    11    13 ar  
    28    11    32 1   
    29    12    13 ar  
    30    12    18 1   
    31    13    14 1   
    32    14    39 1   
    33    15    20 1   
    34    15    33 1   
    35    16    21 1   
    36    17    22 1   
    37    17    34 1   
    38    17    35 1   
    39    20    36 1   
    40    20    37 1   
@<TRIPOS>SUBSTRUCTURE
     1 MJ1         1 TEMP              0 ****  ****    0 ROOT
