@<TRIPOS>MOLECULE
MJ1
   39    40     1     0     0
SMALL
No Charge or Current Charge


@<TRIPOS>ATOM
      1 C1           1.7650     0.5880    -0.0780 cc         1 MJ1       0.536900
      2 C2           1.3190    -1.5590     0.4670 c          1 MJ1       0.538200
      3 C3           4.4300    -1.5100    -0.8090 c          1 MJ1       0.705000
      4 CB1          3.0140     2.5450     1.0060 c3         1 MJ1       0.120300
      5 CB2         -1.1720    -1.2260     0.1800 ce         1 MJ1      -0.125200
      6 CG1          4.2050     3.5170     0.8530 c3         1 MJ1      -0.132100
      7 OG1          1.9040     3.2770     1.5500 oh         1 MJ1      -0.653000
      8 CG2         -2.4720    -0.5300    -0.0820 ca         1 MJ1      -0.072800
      9 CD1         -2.5760     0.4760    -1.0670 ca         1 MJ1      -0.035000
     10 CD2         -3.6290    -0.8960     0.6410 ca         1 MJ1       0.174000
     11 CE1         -3.8070     1.1130    -1.3110 ca         1 MJ1      -0.155000
     12 CE2         -4.8610    -0.2570     0.3970 ca         1 MJ1       0.005000
     13 CZ          -4.9480     0.7510    -0.5810 ca         1 MJ1       0.124100
     14 OH          -6.1360     1.3770    -0.8300 oh         1 MJ1      -0.531100
     15 CA1          2.6130     1.8490    -0.3380 c3         1 MJ1       0.152200
     16 CA2          0.1250    -0.7530     0.1450 cd         1 MJ1       0.055400
     17 CA3          3.7600    -0.9580     0.4680 c3         1 MJ1      -0.065000
     18 F1          -5.9630    -0.6120     1.1020 f          1 MJ1      -0.184000
     19 F2          -3.5580    -1.8620     1.5870 f          1 MJ1      -0.163000
     20 N1           2.0070     2.8440    -1.3030 n8         1 MJ1      -0.972200
     21 N2           0.4240     0.5660    -0.1830 nd         1 MJ1      -0.648300
     22 N3           2.3160    -0.6300     0.3030 n          1 MJ1      -0.309300
     23 O2           1.4220    -2.7360     0.7920 o          1 MJ1      -0.510000
     24 O3           4.4160    -0.8100    -1.8110 o          1 MJ1      -0.711500
     25 H2           3.3220     1.7630     1.7140 h1         1 MJ1       0.050700
     26 H3          -1.2640    -2.2690     0.4880 ha         1 MJ1       0.198000
     27 H4           4.4950     3.9280     1.8270 hc         1 MJ1       0.038367
     28 H5           5.0760     2.9950     0.4380 hc         1 MJ1       0.038367
     29 H6           3.9580     4.3540     0.1890 hc         1 MJ1       0.038367
     30 H7           2.2150     3.7050     2.3780 ho         1 MJ1       0.432000
     31 H9          -1.7070     0.7610    -1.6560 ha         1 MJ1       0.170000
     32 H10         -3.8740     1.8860    -2.0730 ha         1 MJ1       0.129000
     33 H11          3.5460     1.4940    -0.7970 h1         1 MJ1       0.110700
     34 H12          3.8670    -1.7040     1.2660 h1         1 MJ1       0.044200
     35 H13          4.3140    -0.0660     0.7800 h1         1 MJ1       0.044200
     36 H14          1.1050     3.1280    -0.9000 hn         1 MJ1       0.399500
     37 H15          2.5560     3.7090    -1.2620 hn         1 MJ1       0.399500
     38 O1           4.9190    -2.6290    -0.7710 o          1 MJ1      -0.711500
     39 H1          -6.8100     0.9920    -0.2290 ho         1 MJ1       0.473000
@<TRIPOS>BOND
     1     1    15 1   
     2     1    21 2   
     3     1    22 1   
     4     2    16 1   
     5     2    22 1   
     6     2    23 2   
     7     3    17 1   
     8     3    24 1   
     9     3    38 1   
    10     4     6 1   
    11     4     7 1   
    12     4    15 1   
    13     4    25 1   
    14     5     8 1   
    15     5    16 2   
    16     5    26 1   
    17     6    27 1   
    18     6    28 1   
    19     6    29 1   
    20     7    30 1   
    21     8     9 ar  
    22     8    10 ar  
    23     9    11 ar  
    24     9    31 1   
    25    10    12 ar  
    26    10    19 1   
    27    11    13 ar  
    28    11    32 1   
    29    12    13 ar  
    30    12    18 1   
    31    13    14 1   
    32    14    39 1   
    33    15    20 1   
    34    15    33 1   
    35    16    21 1   
    36    17    22 1   
    37    17    34 1   
    38    17    35 1   
    39    20    36 1   
    40    20    37 1   
@<TRIPOS>SUBSTRUCTURE
     1 MJ1         1 TEMP              0 ****  ****    0 ROOT
