@<TRIPOS>MOLECULE
MJ2
   23    23     1     0     0
SMALL
No Charge or Current Charge


@<TRIPOS>ATOM
      1 C6          -5.4860     4.2630    14.3920 ca         1 MJ2      -0.091800
      2 C5          -5.9720     3.1550    15.1110 ca         1 MJ2      -0.015500
      3 C4          -5.0750     2.2560    15.7230 ca         1 MJ2      -0.262500
      4 O12         -4.6890     0.3320    17.5670 o          1 MJ2      -0.545000
      5 S2          -5.6990     0.8440    16.6440 sy         1 MJ2       1.123600
      6 O1          -7.0880     1.0540    17.0470 o          1 MJ2      -0.545000
      7 N3          -5.8040    -0.3220    15.5090 n8         1 MJ2      -1.005100
      8 C11         -3.6850     2.4660    15.6070 ca         1 MJ2      -0.015500
      9 C9          -3.1940     3.5700    14.8840 ca         1 MJ2      -0.091800
     10 C10         -1.6940     3.7970    14.7610 c3         1 MJ2      -0.048800
     11 C8          -4.0970     4.4650    14.2810 ca         1 MJ2      -0.059000
     12 C7          -6.4550     5.2320    13.7320 c3         1 MJ2      -0.048800
     13 H1          -7.0470     2.9950    15.1920 ha         1 MJ2       0.135500
     14 H2          -5.2840    -1.0680    15.9650 hn         1 MJ2       0.473500
     15 H3          -6.7670    -0.6210    15.6430 hn         1 MJ2       0.473500
     16 H4          -2.9860     1.7750    16.0750 ha         1 MJ2       0.135500
     17 H5          -1.3210     4.4010    15.5970 hc         1 MJ2       0.045700
     18 H6          -1.1440     2.8490    14.7620 hc         1 MJ2       0.045700
     19 H7          -1.4430     4.3210    13.8310 hc         1 MJ2       0.045700
     20 H8          -3.7190     5.3200    13.7240 ha         1 MJ2       0.113000
     21 H9          -6.7030     4.9050    12.7150 hc         1 MJ2       0.045700
     22 H10         -7.3920     5.3080    14.2970 hc         1 MJ2       0.045700
     23 H11         -6.0310     6.2410    13.6650 hc         1 MJ2       0.045700
@<TRIPOS>BOND
     1     1     2 ar  
     2     1    11 ar  
     3     1    12 1   
     4     2     3 ar  
     5     2    13 1   
     6     3     5 1   
     7     3     8 ar  
     8     4     5 2   
     9     5     6 2   
    10     5     7 1   
    11     7    14 1   
    12     7    15 1   
    13     8     9 ar  
    14     8    16 1   
    15     9    10 1   
    16     9    11 ar  
    17    10    17 1   
    18    10    18 1   
    19    10    19 1   
    20    11    20 1   
    21    12    21 1   
    22    12    22 1   
    23    12    23 1   
@<TRIPOS>SUBSTRUCTURE
     1 MJ2         1 TEMP              0 ****  ****    0 ROOT
