@<TRIPOS>MOLECULE
MJ2
   23    23     1     0     0
SMALL
bcc


@<TRIPOS>ATOM
      1 C6          -5.5210     4.2820    14.4670 ca         1 MJ2      -0.091800
      2 C5          -6.0140     3.1900    15.1810 ca         1 MJ2      -0.033500
      3 C4          -5.1260     2.2740    15.7150 ca         1 MJ2      -0.262500
      4 O12         -4.9270     0.7210    17.8440 o          1 MJ2      -0.615800
      5 S2          -5.7420     0.9040    16.6510 sy         1 MJ2       1.265200
      6 O1          -7.1780     1.0840    16.8240 o          1 MJ2      -0.615800
      7 N3          -5.3690    -0.3600    15.6550 n8         1 MJ2      -0.894700
      8 C11         -3.7500     2.4080    15.5650 ca         1 MJ2      -0.033500
      9 C9          -3.2460     3.4900    14.8600 ca         1 MJ2      -0.091800
     10 C10         -1.7680     3.6850    14.6920 c3         1 MJ2      -0.048800
     11 C8          -4.1460     4.4130    14.3220 ca         1 MJ2      -0.077000
     12 C7          -6.4620     5.2760    13.8530 c3         1 MJ2      -0.048800
     13 H1          -7.0810     3.0690    15.3130 ha         1 MJ2       0.153500
     14 H2          -5.3540    -1.2400    16.1620 hn         1 MJ2       0.418300
     15 H3          -5.9870    -0.4260    14.8530 hn         1 MJ2       0.418300
     16 H4          -3.0740     1.6780    15.9920 ha         1 MJ2       0.153500
     17 H5          -1.4140     4.5180    15.3020 hc         1 MJ2       0.045700
     18 H6          -1.2110     2.7970    14.9880 hc         1 MJ2       0.045700
     19 H7          -1.5140     3.9140    13.6570 hc         1 MJ2       0.045700
     20 H8          -3.7560     5.2640    13.7750 ha         1 MJ2       0.131000
     21 H9          -6.8260     4.9180    12.8880 hc         1 MJ2       0.045700
     22 H10         -7.3330     5.4450    14.4850 hc         1 MJ2       0.045700
     23 H11         -5.9740     6.2340    13.6830 hc         1 MJ2       0.045700
@<TRIPOS>BOND
     1     1     2 ar  
     2     1    11 ar  
     3     1    12 1   
     4     2     3 ar  
     5     2    13 1   
     6     3     5 1   
     7     3     8 ar  
     8     4     5 2   
     9     5     6 2   
    10     5     7 1   
    11     7    14 1   
    12     7    15 1   
    13     8     9 ar  
    14     8    16 1   
    15     9    10 1   
    16     9    11 ar  
    17    10    17 1   
    18    10    18 1   
    19    10    19 1   
    20    11    20 1   
    21    12    21 1   
    22    12    22 1   
    23    12    23 1   
@<TRIPOS>SUBSTRUCTURE
     1 MJ2         1 TEMP              0 ****  ****    0 ROOT
