@<TRIPOS>MOLECULE
MJ3
   68    70     1     0     0
SMALL
abcg2


@<TRIPOS>ATOM
      1 N1         -16.2150    74.3720     1.1570 n          1 MJ3      -0.309000
      2 C2         -17.1100    73.4560     0.6200 c          1 MJ3       0.616000
      3 O2         -17.3450    72.3660     1.1180 o          1 MJ3      -0.607000
      4 N3         -17.7220    73.8740    -0.5390 ns         1 MJ3      -0.476500
      5 C4         -17.5530    75.0850    -1.2090 c          1 MJ3       0.586200
      6 O4         -18.1830    75.3090    -2.2380 o          1 MJ3      -0.605000
      7 C5         -16.6150    75.9710    -0.5710 cc         1 MJ3      -0.400200
      8 C6         -15.9990    75.5910     0.5650 cd         1 MJ3       0.054600
      9 PA         -14.5870    78.8790     2.8890 p5         1 MJ3       1.509800
     10 PB         -11.9270    79.1440     1.5190 p5         1 MJ3       1.521800
     11 O'P        -11.5990    78.5360     7.3070 o          1 MJ3      -0.714000
     12 O'Q        -12.5790    80.3630     6.4550 o          1 MJ3      -0.714000
     13 C1         -10.1730    80.3050     3.1650 c6         1 MJ3       0.438300
     14 O1A        -15.1350    78.3860     1.5890 o          1 MJ3      -0.861500
     15 O1B        -11.9780    80.3700     0.6680 o          1 MJ3      -0.873000
     16 C1C        -15.5030    74.0170     2.3850 c5         1 MJ3       0.334700
     17 C9          -8.6800    80.1620     3.4580 c6         1 MJ3       0.051700
     18 N2          -8.1820    81.4100     4.0030 ns         1 MJ3      -0.476900
     19 O2A        -15.2720    79.9770     3.6290 o          1 MJ3      -0.861500
     20 O2B        -11.9580    77.7850     0.9100 o          1 MJ3      -0.873000
     21 C2C        -14.0160    73.7260     2.1890 c5         1 MJ3       0.120300
     22 O2C        -13.8430    72.4180     1.6960 oh         1 MJ3      -0.707000
     23 C3          -8.4470    78.9720     4.4150 c6         1 MJ3       0.089700
     24 N4          -7.0540    78.8820     4.8090 ns         1 MJ3      -0.469900
     25 O3A        -13.0270    79.2940     2.7030 os         1 MJ3      -0.735800
     26 O3B        -10.5690    79.1660     2.4320 os         1 MJ3      -0.621400
     27 C3C        -13.4630    74.0190     3.5890 c5         1 MJ3       0.098300
     28 O3C        -13.7300    72.8980     4.4200 oh         1 MJ3      -0.729000
     29 C10         -9.3450    79.0610     5.6440 c6         1 MJ3       0.155300
     30 O6          -9.2330    77.8590     6.3890 oh         1 MJ3      -0.801000
     31 C4C        -14.2950    75.2450     3.9810 c5         1 MJ3       0.127300
     32 O4C        -15.5620    75.1020     3.2870 os         1 MJ3      -0.436000
     33 C11        -10.8040    79.2980     5.2140 c6         1 MJ3       0.007300
     34 O5         -10.8920    80.4460     4.3700 os         1 MJ3      -0.431000
     35 C5C        -13.6090    76.5430     3.6080 c3         1 MJ3       0.194600
     36 O5C        -14.4410    77.6530     3.9490 os         1 MJ3      -0.580400
     37 C12        -11.7500    79.4400     6.4260 c          1 MJ3       0.725000
     38 C7          -7.0440    82.0070     3.5870 c          1 MJ3       0.584100
     39 O7          -6.3310    81.5430     2.6960 o          1 MJ3      -0.647100
     40 C8          -6.6930    83.2990     4.2850 c3         1 MJ3      -0.178100
     41 O43         -6.3890    77.6250     3.0460 o          1 MJ3      -0.622100
     42 C41         -6.1170    78.2550     4.0710 c          1 MJ3       0.594100
     43 C42         -4.6970    78.3770     4.5700 c3         1 MJ3      -0.176100
     44 H1         -18.3750    73.2150    -0.9430 hn         1 MJ3       0.306500
     45 H2         -16.4330    76.9430    -1.0000 ha         1 MJ3       0.250000
     46 H3         -15.3320    76.2650     1.0870 h4         1 MJ3       0.312000
     47 H5         -10.3710    81.2140     2.5960 h2         1 MJ3       0.076700
     48 H6         -16.0070    73.1380     2.7820 h2         1 MJ3       0.092700
     49 H7          -8.1440    79.9800     2.5310 h1         1 MJ3       0.096700
     50 H8          -8.7150    81.8510     4.7360 hn         1 MJ3       0.323500
     51 H11        -13.5960    74.4610     1.4960 h1         1 MJ3       0.090700
     52 H12        -12.9400    72.3280     1.3660 ho         1 MJ3       0.498000
     53 H13         -8.6960    78.0600     3.8750 h1         1 MJ3       0.120700
     54 H14         -6.7540    79.4310     5.5990 hn         1 MJ3       0.290500
     55 H15        -12.3930    74.2430     3.5680 h1         1 MJ3       0.071700
     56 H16        -13.4280    73.1070     5.3130 ho         1 MJ3       0.498000
     57 H17         -9.0270    79.9170     6.2590 h1         1 MJ3      -0.005300
     58 H18        -10.0590    77.8590     6.9360 ho         1 MJ3       0.571000
     59 H19        -14.5140    75.2380     5.0510 h1         1 MJ3       0.076700
     60 H20        -11.1410    78.4160     4.6600 h1         1 MJ3       0.073700
     61 H21        -13.3570    76.5630     2.5470 h1         1 MJ3       0.054700
     62 H22        -12.6770    76.6160     4.1750 h1         1 MJ3       0.054700
     63 H23         -5.6900    83.2100     4.7030 hc         1 MJ3       0.043033
     64 H24         -6.6760    84.1020     3.5460 hc         1 MJ3       0.043033
     65 H25         -7.3930    83.5580     5.0790 hc         1 MJ3       0.043033
     66 H26         -4.1360    78.9920     3.8620 hc         1 MJ3       0.039700
     67 H27         -4.6300    78.8310     5.5580 hc         1 MJ3       0.039700
     68 H28         -4.2390    77.3880     4.5900 hc         1 MJ3       0.039700
@<TRIPOS>BOND
     1     1     2 1   
     2     1     8 1   
     3     1    16 1   
     4     2     3 2   
     5     2     4 1   
     6     4     5 1   
     7     4    44 1   
     8     5     6 2   
     9     5     7 1   
    10     7     8 2   
    11     7    45 1   
    12     8    46 1   
    13     9    14 1   
    14     9    19 1   
    15     9    25 1   
    16     9    36 1   
    17    10    15 1   
    18    10    20 1   
    19    10    25 1   
    20    10    26 1   
    21    11    37 1   
    22    12    37 1   
    23    13    17 1   
    24    13    26 1   
    25    13    34 1   
    26    13    47 1   
    27    16    21 1   
    28    16    32 1   
    29    16    48 1   
    30    17    18 1   
    31    17    23 1   
    32    17    49 1   
    33    18    38 1   
    34    18    50 1   
    35    21    22 1   
    36    21    27 1   
    37    21    51 1   
    38    22    52 1   
    39    23    24 1   
    40    23    29 1   
    41    23    53 1   
    42    24    42 1   
    43    24    54 1   
    44    27    28 1   
    45    27    31 1   
    46    27    55 1   
    47    28    56 1   
    48    29    30 1   
    49    29    33 1   
    50    29    57 1   
    51    30    58 1   
    52    31    32 1   
    53    31    35 1   
    54    31    59 1   
    55    33    34 1   
    56    33    37 1   
    57    33    60 1   
    58    35    36 1   
    59    35    61 1   
    60    35    62 1   
    61    38    39 2   
    62    38    40 1   
    63    40    63 1   
    64    40    64 1   
    65    40    65 1   
    66    41    42 2   
    67    42    43 1   
    68    43    66 1   
    69    43    67 1   
    70    43    68 1   
@<TRIPOS>SUBSTRUCTURE
     1 MJ3         1 TEMP              0 ****  ****    0 ROOT
