@<TRIPOS>MOLECULE
MJ3
   68    70     1     0     0
SMALL
No Charge or Current Charge


@<TRIPOS>ATOM
      1 N1         -16.6290    74.6160     0.1980 n          1 MJ3      -0.309000
      2 C2         -17.5680    74.0560    -0.6890 c          1 MJ3       0.616000
      3 O2         -18.6870    73.7040    -0.3520 o          1 MJ3      -0.607000
      4 N3         -17.1680    73.9240    -1.9830 ns         1 MJ3      -0.476500
      5 C4         -15.9790    74.2760    -2.5310 c          1 MJ3       0.586200
      6 O4         -15.7320    74.1070    -3.7110 o          1 MJ3      -0.605000
      7 C5         -15.0510    74.8710    -1.5790 cc         1 MJ3      -0.400200
      8 C6         -15.3770    75.0400    -0.2510 cd         1 MJ3       0.054600
      9 PA         -13.4720    78.0410     2.9120 p5         1 MJ3       1.509800
     10 PB         -10.8970    77.6960     3.0160 p5         1 MJ3       1.521800
     11 O'P         -7.7900    76.9500     8.4660 o          1 MJ3      -0.714000
     12 O'Q         -8.6190    78.8490     8.8800 o          1 MJ3      -0.714000
     13 C1          -9.8080    79.1440     4.8730 c6         1 MJ3       0.438300
     14 O1A        -13.5170    77.3100     1.6130 o          1 MJ3      -0.861500
     15 O1B        -10.6990    78.8380     2.0810 o          1 MJ3      -0.873000
     16 C1C        -17.0120    74.7500     1.6280 c5         1 MJ3       0.334700
     17 C9          -8.6920    80.0200     4.2040 c6         1 MJ3       0.051700
     18 N2          -8.7000    81.3990     4.7610 ns         1 MJ3      -0.476900
     19 O2A        -13.6830    79.5120     2.7670 o          1 MJ3      -0.861500
     20 O2B        -10.6410    76.3690     2.3820 o          1 MJ3      -0.873000
     21 C2C        -16.3470    73.5850     2.4300 c5         1 MJ3       0.120300
     22 O2C        -16.9840    72.3050     2.2960 oh         1 MJ3      -0.707000
     23 C3          -7.3140    79.3160     4.4200 c6         1 MJ3       0.089700
     24 N4          -6.2060    80.0800     3.8120 ns         1 MJ3      -0.469900
     25 O3A        -12.2390    77.7140     3.8300 os         1 MJ3      -0.735800
     26 O3B         -9.9380    77.8450     4.2950 os         1 MJ3      -0.621400
     27 C3C        -16.5830    74.1530     3.8590 c5         1 MJ3       0.098300
     28 O3C        -17.9560    73.9440     4.2530 oh         1 MJ3      -0.729000
     29 C10         -7.0620    79.0950     5.9490 c6         1 MJ3       0.155300
     30 O6          -5.7970    78.4430     6.1830 oh         1 MJ3      -0.801000
     31 C4C        -16.2330    75.6740     3.6390 c5         1 MJ3       0.127300
     32 O4C        -16.4440    75.9330     2.2210 os         1 MJ3      -0.436000
     33 C11         -8.2450    78.3090     6.5840 c6         1 MJ3       0.007300
     34 O5          -9.5090    78.9860     6.2790 os         1 MJ3      -0.431000
     35 C5C        -14.7740    76.0330     4.0440 c3         1 MJ3       0.194600
     36 O5C        -14.5800    77.4530     3.9250 os         1 MJ3      -0.580400
     37 C12         -8.0070    78.1060     8.1200 c          1 MJ3       0.725000
     38 C7          -8.3860    82.5520     4.0790 c          1 MJ3       0.584100
     39 O7          -8.1070    82.5650     2.8900 o          1 MJ3      -0.647100
     40 C8          -8.4200    83.8190     4.9270 c3         1 MJ3      -0.178100
     41 O43         -6.4410    79.3790     1.6570 o          1 MJ3      -0.622100
     42 C41         -5.8660    80.0760     2.4810 c          1 MJ3       0.594100
     43 C42         -4.7020    80.9930     2.1160 c3         1 MJ3      -0.176100
     44 H1         -17.8410    73.5170    -2.6120 hn         1 MJ3       0.306500
     45 H2         -14.0930    75.1780    -1.9840 ha         1 MJ3       0.250000
     46 H3         -14.7300    75.4900     0.5040 h4         1 MJ3       0.312000
     47 H5         -10.7690    79.6770     4.7880 h2         1 MJ3       0.076700
     48 H6         -18.1050    74.7540     1.7250 h2         1 MJ3       0.092700
     49 H7          -8.8820    80.0900     3.1260 h1         1 MJ3       0.096700
     50 H8          -8.9190    81.5120     5.7440 hn         1 MJ3       0.323500
     51 H11        -15.2730    73.5170     2.2010 h1         1 MJ3       0.090700
     52 H12        -17.7320    72.3570     2.9420 ho         1 MJ3       0.498000
     53 H13         -7.3600    78.3320     3.9290 h1         1 MJ3       0.120700
     54 H14         -5.6490    80.6690     4.4180 hn         1 MJ3       0.290500
     55 H15        -15.9010    73.6850     4.5850 h1         1 MJ3       0.071700
     56 H16        -18.0510    74.2550     5.1860 ho         1 MJ3       0.498000
     57 H17         -7.0280    80.0820     6.4340 h1         1 MJ3      -0.005300
     58 H18         -5.7690    77.6320     5.6190 ho         1 MJ3       0.571000
     59 H19        -16.9120    76.3140     4.2190 h1         1 MJ3       0.076700
     60 H20         -8.2790    77.3020     6.1440 h1         1 MJ3       0.073700
     61 H21        -14.0710    75.4670     3.4180 h1         1 MJ3       0.054700
     62 H22        -14.6100    75.7230     5.0840 h1         1 MJ3       0.054700
     63 H23         -8.1700    84.7200     4.3540 hc         1 MJ3       0.043033
     64 H24         -9.4040    83.9050     5.4040 hc         1 MJ3       0.043033
     65 H25         -7.7560    83.6910     5.7890 hc         1 MJ3       0.043033
     66 H26         -4.9370    82.0130     2.4400 hc         1 MJ3       0.039700
     67 H27         -3.8390    80.7450     2.7450 hc         1 MJ3       0.039700
     68 H28         -4.4490    80.9550     1.0500 hc         1 MJ3       0.039700
@<TRIPOS>BOND
     1     1     2 1   
     2     1     8 1   
     3     1    16 1   
     4     2     3 2   
     5     2     4 1   
     6     4     5 1   
     7     4    44 1   
     8     5     6 2   
     9     5     7 1   
    10     7     8 2   
    11     7    45 1   
    12     8    46 1   
    13     9    14 1   
    14     9    19 1   
    15     9    25 1   
    16     9    36 1   
    17    10    15 1   
    18    10    20 1   
    19    10    25 1   
    20    10    26 1   
    21    11    37 1   
    22    12    37 1   
    23    13    17 1   
    24    13    26 1   
    25    13    34 1   
    26    13    47 1   
    27    16    21 1   
    28    16    32 1   
    29    16    48 1   
    30    17    18 1   
    31    17    23 1   
    32    17    49 1   
    33    18    38 1   
    34    18    50 1   
    35    21    22 1   
    36    21    27 1   
    37    21    51 1   
    38    22    52 1   
    39    23    24 1   
    40    23    29 1   
    41    23    53 1   
    42    24    42 1   
    43    24    54 1   
    44    27    28 1   
    45    27    31 1   
    46    27    55 1   
    47    28    56 1   
    48    29    30 1   
    49    29    33 1   
    50    29    57 1   
    51    30    58 1   
    52    31    32 1   
    53    31    35 1   
    54    31    59 1   
    55    33    34 1   
    56    33    37 1   
    57    33    60 1   
    58    35    36 1   
    59    35    61 1   
    60    35    62 1   
    61    38    39 2   
    62    38    40 1   
    63    40    63 1   
    64    40    64 1   
    65    40    65 1   
    66    41    42 2   
    67    42    43 1   
    68    43    66 1   
    69    43    67 1   
    70    43    68 1   
@<TRIPOS>SUBSTRUCTURE
     1 MJ3         1 TEMP              0 ****  ****    0 ROOT
