@<TRIPOS>MOLECULE
MJ4
   27    27     1     0     0
SMALL
No Charge or Current Charge


@<TRIPOS>ATOM
      1 N1         -13.6250   -14.0180   -19.5850 n7         1 MJ4      -0.874400
      2 C4         -12.9820   -14.5720   -20.7950 c3         1 MJ4       0.237100
      3 C5         -13.7310   -15.7660   -21.3160 cc         1 MJ4      -0.234300
      4 C6         -14.7600   -18.0380   -21.6750 cc         1 MJ4      -0.180300
      5 C7         -15.0280   -17.1480   -22.6850 cd         1 MJ4      -0.139000
      6 C8         -14.4430   -15.8690   -22.4860 cd         1 MJ4      -0.119000
      7 C1         -16.3550   -15.0470   -18.5180 c3         1 MJ4      -0.126100
      8 C2         -16.1770   -14.1900   -19.7910 c3         1 MJ4       0.128300
      9 C3         -14.9080   -13.2780   -19.7530 c3         1 MJ4       0.169800
     10 O1         -17.3470   -13.3750   -19.9480 oh         1 MJ4      -0.668000
     11 S1         -13.7410   -17.2970   -20.4430 ss         1 MJ4       0.138000
     12 C9         -15.2150   -19.4660   -21.5550 c3         1 MJ4      -0.021800
     13 H1         -13.7600   -14.7740   -18.9060 hn         1 MJ4       0.417000
     14 H3         -11.9550   -14.8890   -20.5630 h1         1 MJ4       0.063200
     15 H4         -12.9100   -13.8100   -21.5840 h1         1 MJ4       0.063200
     16 H5         -15.6300   -17.3970   -23.5530 ha         1 MJ4       0.134000
     17 H6         -14.5570   -15.0480   -23.1880 ha         1 MJ4       0.136000
     18 H8         -16.4250   -14.4130   -17.6260 hc         1 MJ4       0.041367
     19 H9         -17.2670   -15.6520   -18.5830 hc         1 MJ4       0.041367
     20 H10        -16.0990   -14.8680   -20.6480 h1         1 MJ4       0.041700
     21 H11        -14.8820   -12.6620   -20.6630 h1         1 MJ4       0.063700
     22 H12        -15.0340   -12.5840   -18.9100 h1         1 MJ4       0.063700
     23 H13        -18.1140   -13.9840   -20.0250 ho         1 MJ4       0.440000
     24 H14        -14.3580   -20.1510   -21.5630 hc         1 MJ4       0.047700
     25 H15        -15.7650   -19.6230   -20.6190 hc         1 MJ4       0.047700
     26 H16        -15.8760   -19.7430   -22.3840 hc         1 MJ4       0.047700
     27 H7         -15.5110   -15.7330   -18.3860 hc         1 MJ4       0.041367
@<TRIPOS>BOND
     1     1     2 1   
     2     1     9 1   
     3     1    13 1   
     4     2     3 1   
     5     2    14 1   
     6     2    15 1   
     7     3     6 2   
     8     3    11 1   
     9     4     5 2   
    10     4    11 1   
    11     4    12 1   
    12     5     6 1   
    13     5    16 1   
    14     6    17 1   
    15     7     8 1   
    16     7    18 1   
    17     7    19 1   
    18     7    27 1   
    19     8     9 1   
    20     8    10 1   
    21     8    20 1   
    22     9    21 1   
    23     9    22 1   
    24    10    23 1   
    25    12    24 1   
    26    12    25 1   
    27    12    26 1   
@<TRIPOS>SUBSTRUCTURE
     1 MJ4         1 TEMP              0 ****  ****    0 ROOT
