@<TRIPOS>MOLECULE
MJ4
   27    27     1     0     0
SMALL
abcg2


@<TRIPOS>ATOM
      1 N1         -13.6550   -13.9230   -19.6180 n7         1 MJ4      -0.874400
      2 C4         -12.9850   -14.5950   -20.7340 c3         1 MJ4       0.237100
      3 C5         -13.6820   -15.7790   -21.3420 cc         1 MJ4      -0.234300
      4 C6         -14.8000   -17.9960   -21.7520 cc         1 MJ4      -0.180300
      5 C7         -14.9780   -17.1000   -22.7670 cd         1 MJ4      -0.139000
      6 C8         -14.3430   -15.8440   -22.5340 cd         1 MJ4      -0.119000
      7 C1         -16.2940   -14.9550   -18.3250 c3         1 MJ4      -0.126100
      8 C2         -16.1680   -14.3790   -19.7270 c3         1 MJ4       0.128300
      9 C3         -14.9940   -13.4030   -19.8690 c3         1 MJ4       0.169800
     10 O1         -17.3330   -13.6060   -20.0700 oh         1 MJ4      -0.668000
     11 S1         -13.8300   -17.2890   -20.4950 ss         1 MJ4       0.138000
     12 C9         -15.3090   -19.3980   -21.6480 c3         1 MJ4      -0.021800
     13 H1         -13.6320   -14.5010   -18.7880 hn         1 MJ4       0.417000
     14 H3         -11.9920   -14.8830   -20.3810 h1         1 MJ4       0.063200
     15 H4         -12.8410   -13.8610   -21.5320 h1         1 MJ4       0.063200
     16 H5         -15.5490   -17.3330   -23.6560 ha         1 MJ4       0.134000
     17 H6         -14.3900   -15.0060   -23.2170 ha         1 MJ4       0.136000
     18 H8         -16.3830   -14.1540   -17.5870 hc         1 MJ4       0.041367
     19 H9         -17.1780   -15.5930   -18.2560 hc         1 MJ4       0.041367
     20 H10        -16.0570   -15.1950   -20.4450 h1         1 MJ4       0.041700
     21 H11        -15.0110   -12.9900   -20.8810 h1         1 MJ4       0.063700
     22 H12        -15.1840   -12.5730   -19.1800 h1         1 MJ4       0.063700
     23 H13        -18.1070   -14.1780   -19.9950 ho         1 MJ4       0.440000
     24 H14        -14.4920   -20.1200   -21.5770 hc         1 MJ4       0.047700
     25 H15        -15.9420   -19.5330   -20.7680 hc         1 MJ4       0.047700
     26 H16        -15.8990   -19.6380   -22.5320 hc         1 MJ4       0.047700
     27 H7         -15.4280   -15.5700   -18.0740 hc         1 MJ4       0.041367
@<TRIPOS>BOND
     1     1     2 1   
     2     1     9 1   
     3     1    13 1   
     4     2     3 1   
     5     2    14 1   
     6     2    15 1   
     7     3     6 2   
     8     3    11 1   
     9     4     5 2   
    10     4    11 1   
    11     4    12 1   
    12     5     6 1   
    13     5    16 1   
    14     6    17 1   
    15     7     8 1   
    16     7    18 1   
    17     7    19 1   
    18     7    27 1   
    19     8     9 1   
    20     8    10 1   
    21     8    20 1   
    22     9    21 1   
    23     9    22 1   
    24    10    23 1   
    25    12    24 1   
    26    12    25 1   
    27    12    26 1   
@<TRIPOS>SUBSTRUCTURE
     1 MJ4         1 TEMP              0 ****  ****    0 ROOT
