@<TRIPOS>MOLECULE
MJ5
   27    28     1     0     0
SMALL
abcg2


@<TRIPOS>ATOM
      1 CAA          4.4410     1.3760    -0.4510 c3         1 MJ5      -0.050800
      2 OAB          0.7260    -1.8310    -0.1610 oh         1 MJ5      -0.513100
      3 CAC         -4.1130     0.0240    -0.8160 ca         1 MJ5      -0.146000
      4 CAD         -2.9390     0.5660    -1.3170 ca         1 MJ5      -0.080000
      5 CAE         -4.0980    -0.5820     0.4360 ca         1 MJ5      -0.080000
      6 CAF         -1.7570     0.5110    -0.5880 ca         1 MJ5      -0.159000
      7 CAG         -2.9280    -0.6470     1.1750 ca         1 MJ5      -0.159000
      8 CAH          2.3340     1.8320     0.8540 ca         1 MJ5      -0.141000
      9 CAI          1.0790     1.4470     1.3110 ca         1 MJ5      -0.075000
     10 CAJ          2.5400    -0.2530    -0.3080 ca         1 MJ5      -0.205000
     11 OAK         -0.6550    -0.1860     1.4590 os         1 MJ5      -0.239200
     12 CAL          3.0770     0.9860     0.0390 ca         1 MJ5      -0.032300
     13 CAM          1.2890    -0.6500     0.1470 ca         1 MJ5       0.132100
     14 CAN         -1.7560    -0.0990     0.6610 ca         1 MJ5       0.144100
     15 CAO          0.5600     0.2150     0.9660 ca         1 MJ5       0.056100
     16 HAA          5.2200     0.8250     0.0780 hc         1 MJ5       0.045367
     17 HAAA         4.5600     1.1610    -1.5130 hc         1 MJ5       0.045367
     18 HAAB         4.6290     2.4380    -0.3000 hc         1 MJ5       0.045367
     19 HOAB         1.3080    -2.3390    -0.7370 ho         1 MJ5       0.464000
     20 HAD         -2.9340     1.0440    -2.2880 ha         1 MJ5       0.110500
     21 HAE         -5.0060    -1.0090     0.8430 ha         1 MJ5       0.110500
     22 HAF         -0.8560     0.9480    -0.9990 ha         1 MJ5       0.124500
     23 HAG         -2.9170    -1.1190     2.1490 ha         1 MJ5       0.124500
     24 HAH          2.7280     2.8000     1.1350 ha         1 MJ5       0.119000
     25 HAI          0.4990     2.1070     1.9440 ha         1 MJ5       0.131000
     26 HAJ          3.1070    -0.9210    -0.9480 ha         1 MJ5       0.114000
     27 HAC         -5.0290     0.0750    -1.3890 ha         1 MJ5       0.113000
@<TRIPOS>BOND
     1     1    12 1   
     2     1    16 1   
     3     1    17 1   
     4     1    18 1   
     5     2    13 1   
     6     2    19 1   
     7     3     4 ar  
     8     3     5 ar  
     9     3    27 1   
    10     4     6 ar  
    11     4    20 1   
    12     5     7 ar  
    13     5    21 1   
    14     6    14 ar  
    15     6    22 1   
    16     7    14 ar  
    17     7    23 1   
    18     8     9 ar  
    19     8    12 ar  
    20     8    24 1   
    21     9    15 ar  
    22     9    25 1   
    23    10    12 ar  
    24    10    13 ar  
    25    10    26 1   
    26    11    14 1   
    27    11    15 1   
    28    13    15 ar  
@<TRIPOS>SUBSTRUCTURE
     1 MJ5         1 TEMP              0 ****  ****    0 ROOT
