@<TRIPOS>MOLECULE
MJ5
   27    28     1     0     0
SMALL
No Charge or Current Charge


@<TRIPOS>ATOM
      1 CAA          4.5160     1.3070    -0.4670 c3         1 MJ5      -0.050800
      2 OAB          0.6630    -1.7610    -0.2340 oh         1 MJ5      -0.513100
      3 CAC         -4.1570    -0.1030    -0.8650 ca         1 MJ5      -0.146000
      4 CAD         -3.0180     0.5650    -1.3460 ca         1 MJ5      -0.080000
      5 CAE         -4.1330    -0.7180     0.3980 ca         1 MJ5      -0.080000
      6 CAF         -1.8500     0.6140    -0.5650 ca         1 MJ5      -0.159000
      7 CAG         -2.9660    -0.6680     1.1800 ca         1 MJ5      -0.159000
      8 CAH          2.4580     1.8350     0.9240 ca         1 MJ5      -0.141000
      9 CAI          1.1770     1.5130     1.4060 ca         1 MJ5      -0.075000
     10 CAJ          2.5120    -0.2470    -0.3330 ca         1 MJ5      -0.205000
     11 OAK         -0.6990     0.0270     1.5020 os         1 MJ5      -0.239200
     12 CAL          3.1290     0.9590     0.0500 ca         1 MJ5      -0.032300
     13 CAM          1.2320    -0.5760     0.1440 ca         1 MJ5       0.132100
     14 CAN         -1.8200    -0.0100     0.7000 ca         1 MJ5       0.144100
     15 CAO          0.5570     0.3160     1.0130 ca         1 MJ5       0.056100
     16 HAA          5.2920     0.8920     0.1860 hc         1 MJ5       0.045367
     17 HAAA         4.6780     0.9080    -1.4760 hc         1 MJ5       0.045367
     18 HAAB         4.6650     2.3930    -0.5160 hc         1 MJ5       0.045367
     19 HOAB         1.2890    -2.2310    -0.8250 ho         1 MJ5       0.464000
     20 HAD         -3.0400     1.0440    -2.3230 ha         1 MJ5       0.110500
     21 HAE         -5.0170    -1.2310     0.7710 ha         1 MJ5       0.110500
     22 HAF         -0.9780     1.1400    -0.9450 ha         1 MJ5       0.124500
     23 HAG         -2.9460    -1.1420     2.1580 ha         1 MJ5       0.124500
     24 HAH          2.9290     2.7660     1.2320 ha         1 MJ5       0.119000
     25 HAI          0.6620     2.1940     2.0810 ha         1 MJ5       0.131000
     26 HAJ          3.0360    -0.9270    -1.0010 ha         1 MJ5       0.114000
     27 HAC         -5.0610    -0.1400    -1.4700 ha         1 MJ5       0.113000
@<TRIPOS>BOND
     1     1    12 1   
     2     1    16 1   
     3     1    17 1   
     4     1    18 1   
     5     2    13 1   
     6     2    19 1   
     7     3     4 ar  
     8     3     5 ar  
     9     3    27 1   
    10     4     6 ar  
    11     4    20 1   
    12     5     7 ar  
    13     5    21 1   
    14     6    14 ar  
    15     6    22 1   
    16     7    14 ar  
    17     7    23 1   
    18     8     9 ar  
    19     8    12 ar  
    20     8    24 1   
    21     9    15 ar  
    22     9    25 1   
    23    10    12 ar  
    24    10    13 ar  
    25    10    26 1   
    26    11    14 1   
    27    11    15 1   
    28    13    15 ar  
@<TRIPOS>SUBSTRUCTURE
     1 MJ5         1 TEMP              0 ****  ****    0 ROOT
