@<TRIPOS>MOLECULE
MJ6
   84    87     1     0     0
SMALL
No Charge or Current Charge


@<TRIPOS>ATOM
      1 N1          21.3960    64.6820    19.0080 n          1 MJ6      -0.397800
      2 C2          23.1730    56.8040    16.0190 ca         1 MJ6      -0.072000
      3 C3          23.6940    58.0700    15.7070 ca         1 MJ6      -0.120800
      4 C4          24.8750    58.2130    15.0120 ca         1 MJ6      -0.150000
      5 C10         20.1310    65.2680    16.0420 c3         1 MJ6      -0.088433
      6 C11         19.4390    62.8450    15.9360 c3         1 MJ6      -0.088433
      7 C14         22.4710    66.4980    20.0620 c5         1 MJ6      -0.097400
      8 C15         21.0720    66.3000    20.6890 c5         1 MJ6      -0.086400
      9 C18         19.5050    64.4300    22.9940 ca         1 MJ6      -0.036000
     10 C19         20.3550    63.3130    23.1340 ca         1 MJ6      -0.114500
     11 C21         21.1760    64.1700    25.2550 ca         1 MJ6      -0.024900
     12 C22         20.3820    65.3160    25.0990 ca         1 MJ6      -0.081500
     13 C24         17.2990    64.9310    21.9380 c3         1 MJ6       0.119000
     14 C25         16.3960    63.6880    22.1100 c3         1 MJ6      -0.179400
     15 C26         16.8890    62.7580    23.2300 c          1 MJ6       0.600100
     16 C28         15.7230    64.1730    24.9840 c3         1 MJ6       0.086300
     17 C31         25.0960    55.8050    14.8920 ca         1 MJ6      -0.017000
     18 O6          24.2360    62.7890    15.3590 o          1 MJ6      -0.642100
     19 C5          23.8700    60.4410    15.5930 cc         1 MJ6      -0.188600
     20 C29         23.1260    59.3550    16.0340 cd         1 MJ6      -0.097200
     21 S           25.3430    59.9140    14.7280 ss         1 MJ6       0.043400
     22 C30         25.5970    57.0890    14.5900 ca         1 MJ6      -0.137000
     23 C1          23.8840    55.6490    15.6120 ca         1 MJ6      -0.050300
     24 C           23.3640    54.2400    15.9340 c3         1 MJ6      -0.044700
     25 F1          24.3840    53.4430    16.3480 f          1 MJ6      -0.161000
     26 P           22.5200    53.4060    14.4510 p5         1 MJ6       1.262500
     27 O2          23.4990    53.2690    13.3290 o          1 MJ6      -0.897500
     28 O1          22.0320    52.0480    14.8430 o          1 MJ6      -0.897500
     29 O           21.3590    54.2330    13.9980 o          1 MJ6      -0.897500
     30 F           22.4830    54.2610    16.9700 f          1 MJ6      -0.161000
     31 N           22.3740    62.1070    16.4740 ns         1 MJ6      -0.487900
     32 C7          21.8040    63.4420    16.7830 c3         1 MJ6       0.061700
     33 C8          20.6390    63.8230    15.7870 c3         1 MJ6      -0.045000
     34 C9          21.1450    63.7600    14.3180 c3         1 MJ6      -0.088433
     35 C12         21.3860    63.4610    18.2960 c          1 MJ6       0.601100
     36 O5          21.0250    62.4330    18.8630 o          1 MJ6      -0.588100
     37 C16         20.8040    64.7980    20.3720 c5         1 MJ6       0.036700
     38 C13         22.3120    65.8000    18.6870 c5         1 MJ6       0.114000
     39 O3          17.5260    61.7520    22.9470 o          1 MJ6      -0.566100
     40 N3          16.6810    63.1180    24.5830 n          1 MJ6      -0.417800
     41 C27         17.3130    62.3270    25.6620 c3         1 MJ6       0.086300
     42 C23         19.5660    65.4540    23.9630 ca         1 MJ6      -0.114500
     43 Br          22.2860    63.9810    26.8000 br         1 MJ6      -0.103100
     44 C20         21.1710    63.1720    24.2690 ca         1 MJ6      -0.081500
     45 H2          19.6990    65.3760    17.0430 hc         1 MJ6       0.038478
     46 H3          20.9450    65.9940    15.9320 hc         1 MJ6       0.038478
     47 H4          19.3490    65.5390    15.3220 hc         1 MJ6       0.038478
     48 H5          19.0070    62.8930    16.9430 hc         1 MJ6       0.038478
     49 H6          18.6430    63.0940    15.2240 hc         1 MJ6       0.038478
     50 H7          19.7410    61.8090    15.7450 hc         1 MJ6       0.038478
     51 H8          23.2450    66.0070    20.6640 hc         1 MJ6       0.056200
     52 H9          22.7500    67.5530    19.9660 hc         1 MJ6       0.056200
     53 H10         21.0610    66.5190    21.7620 hc         1 MJ6       0.051700
     54 H11         20.3300    66.9520    20.2120 hc         1 MJ6       0.051700
     55 H12         20.3550    62.5290    22.3790 ha         1 MJ6       0.143000
     56 H13         20.4060    66.1020    25.8500 ha         1 MJ6       0.134000
     57 H14         17.1670    65.5830    22.8090 h1         1 MJ6       0.049200
     58 H15         16.9510    65.5100    21.0730 h1         1 MJ6       0.049200
     59 H16         15.3990    64.0710    22.3470 hc         1 MJ6       0.075700
     60 H17         16.3700    63.1340    21.1650 hc         1 MJ6       0.075700
     61 H18         16.0970    65.1570    24.6790 h1         1 MJ6       0.038033
     62 H19         14.7470    63.9910    24.5180 h1         1 MJ6       0.038033
     63 H20         15.5860    64.1760    26.0730 h1         1 MJ6       0.038033
     64 H21         25.6490    54.9270    14.5640 ha         1 MJ6       0.196000
     65 H22         22.1910    59.4420    16.5800 ha         1 MJ6       0.180000
     66 H23         26.5270    57.2030    14.0390 ha         1 MJ6       0.101000
     67 H26         21.8850    61.2950    16.8260 hn         1 MJ6       0.332500
     68 H27         22.6030    64.1810    16.6590 h1         1 MJ6       0.062700
     69 H28         22.0220    64.4030    14.1780 hc         1 MJ6       0.038478
     70 H29         21.4200    62.7390    14.0280 hc         1 MJ6       0.038478
     71 H30         20.3680    64.0970    13.6200 hc         1 MJ6       0.038478
     72 H31         21.3520    64.1430    21.0550 h1         1 MJ6       0.085700
     73 H32         23.2800    65.4590    18.2980 h1         1 MJ6       0.053700
     74 H33         21.8580    66.4800    17.9550 h1         1 MJ6       0.053700
     75 H34         18.3740    62.1650    25.4320 h1         1 MJ6       0.038033
     76 H35         17.2450    62.8560    26.6220 h1         1 MJ6       0.038033
     77 H36         16.8110    61.3550    25.7510 h1         1 MJ6       0.038033
     78 H37         18.9820    66.3640    23.8410 ha         1 MJ6       0.143000
     79 H38         21.8000    62.2910    24.3820 ha         1 MJ6       0.134000
     80 C17         19.2580    64.5120    20.4590 c          1 MJ6       0.624100
     81 O4          18.5200    64.3330    19.4930 o          1 MJ6      -0.589100
     82 N2          18.7440    64.6300    21.7840 n          1 MJ6      -0.247400
     83 C6          23.5390    61.8750    15.7780 c          1 MJ6       0.648300
     84 H1          22.2370    56.7240    16.5650 ha         1 MJ6       0.117000
@<TRIPOS>BOND
     1     1    35 1   
     2     1    37 1   
     3     1    38 1   
     4     2     3 ar  
     5     2    23 ar  
     6     2    84 1   
     7     3     4 ar  
     8     3    20 1   
     9     4    21 1   
    10     4    22 ar  
    11     5    33 1   
    12     5    45 1   
    13     5    46 1   
    14     5    47 1   
    15     6    33 1   
    16     6    48 1   
    17     6    49 1   
    18     6    50 1   
    19     7     8 1   
    20     7    38 1   
    21     7    51 1   
    22     7    52 1   
    23     8    37 1   
    24     8    53 1   
    25     8    54 1   
    26     9    10 ar  
    27     9    42 ar  
    28     9    82 1   
    29    10    44 ar  
    30    10    55 1   
    31    11    12 ar  
    32    11    43 1   
    33    11    44 ar  
    34    12    42 ar  
    35    12    56 1   
    36    13    14 1   
    37    13    57 1   
    38    13    58 1   
    39    13    82 1   
    40    14    15 1   
    41    14    59 1   
    42    14    60 1   
    43    15    39 2   
    44    15    40 1   
    45    16    40 1   
    46    16    61 1   
    47    16    62 1   
    48    16    63 1   
    49    17    22 ar  
    50    17    23 ar  
    51    17    64 1   
    52    18    83 2   
    53    19    20 2   
    54    19    21 1   
    55    19    83 1   
    56    20    65 1   
    57    22    66 1   
    58    23    24 1   
    59    24    25 1   
    60    24    26 1   
    61    24    30 1   
    62    26    27 1   
    63    26    28 1   
    64    26    29 1   
    65    31    32 1   
    66    31    67 1   
    67    31    83 1   
    68    32    33 1   
    69    32    35 1   
    70    32    68 1   
    71    33    34 1   
    72    34    69 1   
    73    34    70 1   
    74    34    71 1   
    75    35    36 2   
    76    37    72 1   
    77    37    80 1   
    78    38    73 1   
    79    38    74 1   
    80    40    41 1   
    81    41    75 1   
    82    41    76 1   
    83    41    77 1   
    84    42    78 1   
    85    44    79 1   
    86    80    81 2   
    87    80    82 1   
@<TRIPOS>SUBSTRUCTURE
     1 MJ6         1 TEMP              0 ****  ****    0 ROOT
