@<TRIPOS>MOLECULE
MJ6
   84    87     1     0     0
SMALL
abcg2


@<TRIPOS>ATOM
      1 N1          21.1490    64.9880    18.7880 n          1 MJ6      -0.397800
      2 C2          22.8140    56.9880    15.4620 ca         1 MJ6      -0.072000
      3 C3          23.0890    58.1630    16.1710 ca         1 MJ6      -0.120800
      4 C4          24.1150    58.1750    17.1300 ca         1 MJ6      -0.150000
      5 C10         19.3090    65.2610    16.0560 c3         1 MJ6      -0.088433
      6 C11         18.4860    62.9360    16.3860 c3         1 MJ6      -0.088433
      7 C14         22.6140    66.7260    19.3170 c5         1 MJ6      -0.097400
      8 C15         21.5330    66.6720    20.3870 c5         1 MJ6      -0.086400
      9 C18         20.0310    64.6590    22.8370 ca         1 MJ6      -0.036000
     10 C19         20.5930    63.3880    22.8480 ca         1 MJ6      -0.114500
     11 C21         21.7570    63.9150    24.8710 ca         1 MJ6      -0.024900
     12 C22         21.2020    65.1860    24.8800 ca         1 MJ6      -0.081500
     13 C24         17.7120    65.2190    22.2290 c3         1 MJ6       0.119000
     14 C25         16.8240    64.0130    21.9160 c3         1 MJ6      -0.179400
     15 C26         17.4020    62.6860    22.3730 c          1 MJ6       0.600100
     16 C28         16.9800    63.3250    24.7330 c3         1 MJ6       0.086300
     17 C31         24.5700    55.8800    16.6820 ca         1 MJ6      -0.017000
     18 O6          23.3480    62.5110    17.7500 o          1 MJ6      -0.642100
     19 C5          22.9520    60.3470    16.9330 cc         1 MJ6      -0.188600
     20 C29         22.4370    59.4310    16.0760 cd         1 MJ6      -0.097200
     21 S           24.2720    59.7270    17.8780 ss         1 MJ6       0.043400
     22 C30         24.8630    57.0280    17.3870 ca         1 MJ6      -0.137000
     23 C1          23.5490    55.8450    15.7130 ca         1 MJ6      -0.050300
     24 C           23.2150    54.5410    15.0360 c3         1 MJ6      -0.044700
     25 F1          22.3320    53.8810    15.8830 f          1 MJ6      -0.161000
     26 P           24.6330    53.3820    14.5210 p5         1 MJ6       1.262500
     27 O2          25.2410    52.9440    15.8560 o          1 MJ6      -0.897500
     28 O1          23.9110    52.2730    13.7640 o          1 MJ6      -0.897500
     29 O           25.5100    54.2980    13.6730 o          1 MJ6      -0.897500
     30 F           22.4480    54.8300    13.9220 f          1 MJ6      -0.161000
     31 N           21.4090    62.1570    16.6510 ns         1 MJ6      -0.487900
     32 C7          20.9570    63.5180    16.8080 c3         1 MJ6       0.061700
     33 C8          19.6860    63.7820    15.9540 c3         1 MJ6      -0.045000
     34 C9          20.0200    63.4760    14.4890 c3         1 MJ6      -0.088433
     35 C12         20.7580    63.7990    18.3020 c          1 MJ6       0.601100
     36 O5          20.2420    62.9570    19.0260 o          1 MJ6      -0.588100
     37 C16         20.9310    65.2730    20.1960 c5         1 MJ6       0.036700
     38 C13         21.9660    66.0110    18.1410 c5         1 MJ6       0.114000
     39 O3          17.8210    61.8900    21.5390 o          1 MJ6      -0.566100
     40 N3          17.4540    62.4320    23.6990 n          1 MJ6      -0.417800
     41 C27         18.1310    61.2550    24.1970 c3         1 MJ6       0.086300
     42 C23         20.3440    65.5540    23.8550 ca         1 MJ6      -0.114500
     43 BR          22.9240    63.4030    26.2630 br         1 MJ6      -0.103100
     44 C20         21.4670    63.0140    23.8570 ca         1 MJ6      -0.081500
     45 H2          19.0390    65.5520    17.0700 hc         1 MJ6       0.038478
     46 H3          20.1250    65.9030    15.7190 hc         1 MJ6       0.038478
     47 H4          18.4490    65.4630    15.4150 hc         1 MJ6       0.038478
     48 H5          18.1530    63.1770    17.3950 hc         1 MJ6       0.038478
     49 H6          17.6520    63.1300    15.7100 hc         1 MJ6       0.038478
     50 H7          18.6800    61.8620    16.3450 hc         1 MJ6       0.038478
     51 H8          23.5020    66.1810    19.6440 hc         1 MJ6       0.056200
     52 H9          22.9140    67.7430    19.0660 hc         1 MJ6       0.056200
     53 H10         21.9120    66.8110    21.3980 hc         1 MJ6       0.051700
     54 H11         20.7820    67.4440    20.2000 hc         1 MJ6       0.051700
     55 H12         20.3540    62.6850    22.0620 ha         1 MJ6       0.143000
     56 H13         21.4320    65.8930    25.6650 ha         1 MJ6       0.134000
     57 H14         17.7050    65.4430    23.2940 h1         1 MJ6       0.049200
     58 H15         17.3020    66.0930    21.7250 h1         1 MJ6       0.049200
     59 H16         15.8360    64.1950    22.3450 hc         1 MJ6       0.075700
     60 H17         16.6870    63.9380    20.8380 hc         1 MJ6       0.075700
     61 H18         17.7970    63.9020    25.1750 h1         1 MJ6       0.038033
     62 H19         16.2240    64.0130    24.3670 h1         1 MJ6       0.038033
     63 H20         16.5210    62.7360    25.5280 h1         1 MJ6       0.038033
     64 H21         25.1340    54.9740    16.8630 ha         1 MJ6       0.196000
     65 H22         21.6300    59.6270    15.3830 ha         1 MJ6       0.180000
     66 H23         25.6560    57.0310    18.1240 ha         1 MJ6       0.101000
     67 H26         20.7510    61.4600    16.3400 hn         1 MJ6       0.332500
     68 H27         21.7330    64.1720    16.4040 h1         1 MJ6       0.062700
     69 H28         20.8880    64.0480    14.1550 hc         1 MJ6       0.038478
     70 H29         20.2280    62.4200    14.3130 hc         1 MJ6       0.038478
     71 H30         19.1770    63.7510    13.8540 hc         1 MJ6       0.038478
     72 H31         21.4810    64.5520    20.8020 h1         1 MJ6       0.085700
     73 H32         22.7040    65.5700    17.4730 h1         1 MJ6       0.053700
     74 H33         21.3470    66.6980    17.5600 h1         1 MJ6       0.053700
     75 H34         18.9960    61.5420    24.8000 h1         1 MJ6       0.038033
     76 H35         17.4580    60.6690    24.8250 h1         1 MJ6       0.038033
     77 H36         18.4730    60.6340    23.3760 h1         1 MJ6       0.038033
     78 H37         19.9160    66.5480    23.8490 ha         1 MJ6       0.143000
     79 H38         21.9000    62.0230    23.8480 ha         1 MJ6       0.134000
     80 C17         19.4480    65.2800    20.5370 c          1 MJ6       0.624100
     81 O4          18.6130    65.5900    19.7060 o          1 MJ6      -0.589100
     82 N2          19.1050    65.0410    21.8290 n          1 MJ6      -0.247400
     83 C6          22.5890    61.7600    17.1500 c          1 MJ6       0.648300
     84 H1          22.0190    56.9990    14.7290 ha         1 MJ6       0.117000
@<TRIPOS>BOND
     1     1    35 1   
     2     1    37 1   
     3     1    38 1   
     4     2     3 ar  
     5     2    23 ar  
     6     2    84 1   
     7     3     4 ar  
     8     3    20 1   
     9     4    21 1   
    10     4    22 ar  
    11     5    33 1   
    12     5    45 1   
    13     5    46 1   
    14     5    47 1   
    15     6    33 1   
    16     6    48 1   
    17     6    49 1   
    18     6    50 1   
    19     7     8 1   
    20     7    38 1   
    21     7    51 1   
    22     7    52 1   
    23     8    37 1   
    24     8    53 1   
    25     8    54 1   
    26     9    10 ar  
    27     9    42 ar  
    28     9    82 1   
    29    10    44 ar  
    30    10    55 1   
    31    11    12 ar  
    32    11    43 1   
    33    11    44 ar  
    34    12    42 ar  
    35    12    56 1   
    36    13    14 1   
    37    13    57 1   
    38    13    58 1   
    39    13    82 1   
    40    14    15 1   
    41    14    59 1   
    42    14    60 1   
    43    15    39 2   
    44    15    40 1   
    45    16    40 1   
    46    16    61 1   
    47    16    62 1   
    48    16    63 1   
    49    17    22 ar  
    50    17    23 ar  
    51    17    64 1   
    52    18    83 2   
    53    19    20 2   
    54    19    21 1   
    55    19    83 1   
    56    20    65 1   
    57    22    66 1   
    58    23    24 1   
    59    24    25 1   
    60    24    26 1   
    61    24    30 1   
    62    26    27 1   
    63    26    28 1   
    64    26    29 1   
    65    31    32 1   
    66    31    67 1   
    67    31    83 1   
    68    32    33 1   
    69    32    35 1   
    70    32    68 1   
    71    33    34 1   
    72    34    69 1   
    73    34    70 1   
    74    34    71 1   
    75    35    36 2   
    76    37    72 1   
    77    37    80 1   
    78    38    73 1   
    79    38    74 1   
    80    40    41 1   
    81    41    75 1   
    82    41    76 1   
    83    41    77 1   
    84    42    78 1   
    85    44    79 1   
    86    80    81 2   
    87    80    82 1   
@<TRIPOS>SUBSTRUCTURE
     1 MJ6         1 TEMP              0 ****  ****    0 ROOT
