@<TRIPOS>MOLECULE
MJ7
   69    73     1     0     0
SMALL
No Charge or Current Charge


@<TRIPOS>ATOM
      1 C8           5.7820     3.0690    -0.3570 c5         1 MJ7       0.178300
      2 C13         -2.0660     2.1820     1.5500 c3         1 MJ7       0.161800
      3 C12         -0.9650     2.3190     0.4790 c3         1 MJ7      -0.078400
      4 C11          0.4450     2.4880     1.0860 c3         1 MJ7      -0.066400
      5 C10          1.5460     2.6280     0.0170 c3         1 MJ7       0.055600
      6 C9           4.2680     2.9580    -0.6920 c3         1 MJ7       0.023600
      7 C25         -9.5200    -1.3930    -0.0290 ca         1 MJ7      -0.094500
      8 C26         -6.3500     0.4170     0.8750 ca         1 MJ7      -0.097000
      9 C19         -7.5610     0.2120     0.1660 cp         1 MJ7      -0.039000
     10 C20         -8.1200    -1.1640    -0.0290 cp         1 MJ7      -0.028000
     11 C21         -7.2670    -2.2820    -0.2210 ca         1 MJ7      -0.094500
     12 C22         -7.7920    -3.5730    -0.4050 ca         1 MJ7      -0.103500
     13 C23         -9.1800    -3.7740    -0.3990 ca         1 MJ7       0.120000
     14 C24        -10.0450    -2.6850    -0.2110 ca         1 MJ7      -0.103500
     15 C14         -4.5200     1.9020     1.8360 c3         1 MJ7       0.208100
     16 C15         -5.8180     1.7080     1.0630 ca         1 MJ7      -0.089300
     17 C16         -6.5000     2.8200     0.5360 ca         1 MJ7      -0.084000
     18 C17         -7.7010     2.6420    -0.1700 ca         1 MJ7      -0.115000
     19 C18         -8.2260     1.3520    -0.3510 ca         1 MJ7      -0.097000
     20 C2           6.3210    -1.3630     0.2960 ca         1 MJ7       0.133500
     21 C7           6.7140     3.1690    -1.6060 c5         1 MJ7       0.112300
     22 C6           6.7490     1.6790    -2.0530 c5         1 MJ7       0.079300
     23 C5           6.7480     0.9320    -0.6620 c5         1 MJ7       0.319300
     24 C4           4.8980    -0.7250    -1.2960 cc         1 MJ7       0.409700
     25 C3           5.3930    -2.3400     0.0380 ca         1 MJ7      -0.099600
     26 Cl          -9.8360    -5.3890    -0.6290 cl         1 MJ7      -0.203000
     27 N5          -3.3830     2.0330     0.9080 n7         1 MJ7      -0.867400
     28 S            3.1990     2.8280     0.8160 ss         1 MJ7      -0.396000
     29 O1           8.0400     3.6140    -1.2930 oh         1 MJ7      -0.702000
     30 O            7.9150     1.4180    -2.8630 oh         1 MJ7      -0.688000
     31 O2           6.2340     1.8680     0.3170 os         1 MJ7      -0.431000
     32 N4           6.0180    -0.3340    -0.5500 na         1 MJ7      -0.295300
     33 N2           7.2880    -1.5160     1.2230 nb         1 MJ7      -0.212000
     34 C1           7.2810    -2.6960     1.8880 ca         1 MJ7       0.178900
     35 N1           6.4120    -3.7220     1.7120 nb         1 MJ7      -0.302000
     36 N3           4.4880    -1.9620    -0.9580 nd         1 MJ7      -0.558100
     37 C            5.4660    -3.5390     0.7770 ca         1 MJ7       0.446900
     38 N            4.5920    -4.5650     0.6000 nv         1 MJ7      -1.064900
     39 H1           5.9210     3.9310     0.3090 h1         1 MJ7       0.109700
     40 H2          -1.8460     1.3100     2.1820 h1         1 MJ7       0.031200
     41 H3          -2.0540     3.0740     2.1920 h1         1 MJ7       0.031200
     42 H4          -0.9740     1.4310    -0.1660 hc         1 MJ7       0.046700
     43 H5          -1.1880     3.1840    -0.1580 hc         1 MJ7       0.046700
     44 H6           0.4580     3.3760     1.7310 hc         1 MJ7       0.055200
     45 H7           0.6730     1.6240     1.7230 hc         1 MJ7       0.055200
     46 H8           1.5610     1.7340    -0.6210 h1         1 MJ7       0.056700
     47 H9           1.3430     3.5040    -0.6140 h1         1 MJ7       0.056700
     48 H10          3.9650     3.8510    -1.2550 h1         1 MJ7       0.062700
     49 H11          4.0820     2.0840    -1.3270 h1         1 MJ7       0.062700
     50 H13         -5.8240    -0.4360     1.2960 ha         1 MJ7       0.111000
     51 H14         -6.1880    -2.1450    -0.2420 ha         1 MJ7       0.118500
     52 H15         -7.1230    -4.4170    -0.5540 ha         1 MJ7       0.129000
     53 H16        -11.1210    -2.8420    -0.2040 ha         1 MJ7       0.129000
     54 H17         -4.6070     2.7990     2.4640 h1         1 MJ7       0.038200
     55 H18         -4.3700     1.0460     2.5090 h1         1 MJ7       0.038200
     56 H19         -6.0960     3.8210     0.6710 ha         1 MJ7       0.131000
     57 H20         -8.2230     3.5040    -0.5790 ha         1 MJ7       0.114000
     58 H21         -9.1500     1.2360    -0.9120 ha         1 MJ7       0.115000
     59 H22          6.2740     3.8080    -2.3840 h1         1 MJ7       0.055700
     60 H23          5.8400     1.4530    -2.6260 h1         1 MJ7       0.054700
     61 H24          7.7860     0.6950    -0.3930 h2         1 MJ7       0.123700
     62 H25          4.4390    -0.0910    -2.0450 h5         1 MJ7       0.081800
     63 H26         -3.3620     1.1890     0.3230 hn         1 MJ7       0.411000
     64 H28          8.6090     3.0420    -1.8690 ho         1 MJ7       0.525000
     65 H29          7.7800     0.5540    -3.3220 ho         1 MJ7       0.514000
     66 H30          8.0540    -2.8350     2.6420 h5         1 MJ7       0.046100
     67 H31          3.7510    -4.3580     0.0650 hn         1 MJ7       0.504000
     68 H32          4.5030    -5.2550     1.3400 hn         1 MJ7       0.504000
     69 H12        -10.2070    -0.5650     0.1290 ha         1 MJ7       0.118500
@<TRIPOS>BOND
     1     1     6 1   
     2     1    21 1   
     3     1    31 1   
     4     1    39 1   
     5     2     3 1   
     6     2    27 1   
     7     2    40 1   
     8     2    41 1   
     9     3     4 1   
    10     3    42 1   
    11     3    43 1   
    12     4     5 1   
    13     4    44 1   
    14     4    45 1   
    15     5    28 1   
    16     5    46 1   
    17     5    47 1   
    18     6    28 1   
    19     6    48 1   
    20     6    49 1   
    21     7    10 ar  
    22     7    14 ar  
    23     7    69 1   
    24     8     9 ar  
    25     8    16 ar  
    26     8    50 1   
    27     9    10 1   
    28     9    19 ar  
    29    10    11 ar  
    30    11    12 ar  
    31    11    51 1   
    32    12    13 ar  
    33    12    52 1   
    34    13    14 ar  
    35    13    26 1   
    36    14    53 1   
    37    15    16 1   
    38    15    27 1   
    39    15    54 1   
    40    15    55 1   
    41    16    17 ar  
    42    17    18 ar  
    43    17    56 1   
    44    18    19 ar  
    45    18    57 1   
    46    19    58 1   
    47    20    25 ar  
    48    20    32 1   
    49    20    33 ar  
    50    21    22 1   
    51    21    29 1   
    52    21    59 1   
    53    22    23 1   
    54    22    30 1   
    55    22    60 1   
    56    23    31 1   
    57    23    32 1   
    58    23    61 1   
    59    24    32 1   
    60    24    36 2   
    61    24    62 1   
    62    25    36 1   
    63    25    37 ar  
    64    27    63 1   
    65    29    64 1   
    66    30    65 1   
    67    33    34 ar  
    68    34    35 ar  
    69    34    66 1   
    70    35    37 ar  
    71    37    38 1   
    72    38    67 1   
    73    38    68 1   
@<TRIPOS>SUBSTRUCTURE
     1 MJ7         1 TEMP              0 ****  ****    0 ROOT
