@<TRIPOS>MOLECULE
MJ7
   69    73     1     0     0
SMALL
abcg2


@<TRIPOS>ATOM
      1 C8           5.4110     3.0140     0.1710 c5         1 MJ7       0.178300
      2 C13         -2.2630     1.3110     0.8990 c3         1 MJ7       0.161800
      3 C12         -1.0920     1.6470    -0.0110 c3         1 MJ7      -0.078400
      4 C11          0.2350     1.6580     0.7380 c3         1 MJ7      -0.066400
      5 C10          1.3900     2.0610    -0.1680 c3         1 MJ7       0.055600
      6 C9           4.0760     2.6890    -0.4780 c3         1 MJ7       0.023600
      7 C25        -10.6780    -0.1440     0.2620 ca         1 MJ7      -0.094500
      8 C26         -7.0130     0.2390     0.5800 ca         1 MJ7      -0.097000
      9 C19         -8.2410     0.2880    -0.0820 cp         1 MJ7      -0.039000
     10 C20         -9.3570    -0.5870     0.3320 cp         1 MJ7      -0.028000
     11 C21         -9.1230    -1.8790     0.8050 ca         1 MJ7      -0.094500
     12 C22        -10.1650    -2.7030     1.1970 ca         1 MJ7      -0.103500
     13 C23        -11.4660    -2.2340     1.1150 ca         1 MJ7       0.120000
     14 C24        -11.7330    -0.9560     0.6480 ca         1 MJ7      -0.103500
     15 C14         -4.6590     1.0050     0.9880 c3         1 MJ7       0.208100
     16 C15         -5.9500     1.0540     0.2100 ca         1 MJ7      -0.089300
     17 C16         -6.1190     1.9330    -0.8570 ca         1 MJ7      -0.084000
     18 C17         -7.3310     1.9900    -1.5290 ca         1 MJ7      -0.115000
     19 C18         -8.3880     1.1770    -1.1470 ca         1 MJ7      -0.097000
     20 C2           7.6610    -1.1320     0.1610 ca         1 MJ7       0.133500
     21 C7           6.4890     3.3520    -0.8490 c5         1 MJ7       0.112300
     22 C6           7.0300     1.9560    -1.1720 c5         1 MJ7       0.079300
     23 C5           6.9680     1.2780     0.2010 c5         1 MJ7       0.319300
     24 C4           5.5110    -0.7710    -0.0320 cc         1 MJ7       0.409700
     25 C3           6.9520    -2.3140     0.0110 ca         1 MJ7      -0.099600
     26 CL         -12.7770    -3.2580     1.6000 cl         1 MJ7      -0.203000
     27 N5          -3.5070     1.2720     0.1550 n7         1 MJ7      -0.867400
     28 S            2.9500     1.9880     0.7580 ss         1 MJ7      -0.396000
     29 O1           7.4690     4.1350    -0.2230 oh         1 MJ7      -0.702000
     30 O            8.3390     1.9330    -1.6560 oh         1 MJ7      -0.688000
     31 O2           5.9220     1.8910     0.8960 os         1 MJ7      -0.431000
     32 N4           6.7180    -0.1460     0.1310 na         1 MJ7      -0.295300
     33 N2           8.9790    -1.0150     0.3130 nb         1 MJ7      -0.212000
     34 C1           9.5780    -2.1920     0.3050 ca         1 MJ7       0.178900
     35 N1           9.0330    -3.3990     0.1670 nb         1 MJ7      -0.302000
     36 N3           5.6100    -2.0670    -0.1050 nd         1 MJ7      -0.558100
     37 C            7.7080    -3.5000     0.0170 ca         1 MJ7       0.446900
     38 N            7.1560    -4.7060    -0.1340 nv         1 MJ7      -1.064900
     39 H1           5.2690     3.8290     0.8840 h1         1 MJ7       0.109700
     40 H2          -2.0570     0.3680     1.4300 h1         1 MJ7       0.031200
     41 H3          -2.3530     2.0820     1.6710 h1         1 MJ7       0.031200
     42 H4          -1.0410     0.9170    -0.8260 hc         1 MJ7       0.046700
     43 H5          -1.2680     2.6220    -0.4740 hc         1 MJ7       0.046700
     44 H6           0.1790     2.3530     1.5810 hc         1 MJ7       0.055200
     45 H7           0.4260     0.6670     1.1600 hc         1 MJ7       0.055200
     46 H8           1.4520     1.3940    -1.0300 h1         1 MJ7       0.056700
     47 H9           1.2450     3.0790    -0.5380 h1         1 MJ7       0.056700
     48 H10          3.6450     3.6140    -0.8680 h1         1 MJ7       0.062700
     49 H11          4.1810     1.9950    -1.3150 h1         1 MJ7       0.062700
     50 H13         -6.8860    -0.4380     1.4170 ha         1 MJ7       0.111000
     51 H14         -8.1120    -2.2640     0.8550 ha         1 MJ7       0.118500
     52 H15         -9.9610    -3.7030     1.5550 ha         1 MJ7       0.129000
     53 H16        -12.7490    -0.5910     0.5890 ha         1 MJ7       0.129000
     54 H17         -4.6920     1.7720     1.7690 h1         1 MJ7       0.038200
     55 H18         -4.5980     0.0430     1.5200 h1         1 MJ7       0.038200
     56 H19         -5.2970     2.5670    -1.1630 ha         1 MJ7       0.131000
     57 H20         -7.4520     2.6680    -2.3630 ha         1 MJ7       0.114000
     58 H21         -9.3200     1.2190    -1.6970 ha         1 MJ7       0.115000
     59 H22          6.0730     3.8470    -1.7370 h1         1 MJ7       0.055700
     60 H23          6.3400     1.4510    -1.8590 h1         1 MJ7       0.054700
     61 H24          7.9200     1.3990     0.7280 h2         1 MJ7       0.123700
     62 H25          4.5820    -0.2190    -0.0580 h5         1 MJ7       0.081800
     63 H26         -3.4420     0.5540    -0.5590 hn         1 MJ7       0.411000
     64 H28          8.2940     4.0270    -0.7110 ho         1 MJ7       0.525000
     65 H29          8.3200     2.0720    -2.6080 ho         1 MJ7       0.514000
     66 H30         10.6560    -2.1800     0.4280 h5         1 MJ7       0.046100
     67 H31          6.1570    -4.8140    -0.1610 hn         1 MJ7       0.504000
     68 H32          7.7190    -5.5340    -0.0380 hn         1 MJ7       0.504000
     69 H12        -10.8980     0.8580    -0.0840 ha         1 MJ7       0.118500
@<TRIPOS>BOND
     1     1     6 1   
     2     1    21 1   
     3     1    31 1   
     4     1    39 1   
     5     2     3 1   
     6     2    27 1   
     7     2    40 1   
     8     2    41 1   
     9     3     4 1   
    10     3    42 1   
    11     3    43 1   
    12     4     5 1   
    13     4    44 1   
    14     4    45 1   
    15     5    28 1   
    16     5    46 1   
    17     5    47 1   
    18     6    28 1   
    19     6    48 1   
    20     6    49 1   
    21     7    10 ar  
    22     7    14 ar  
    23     7    69 1   
    24     8     9 ar  
    25     8    16 ar  
    26     8    50 1   
    27     9    10 1   
    28     9    19 ar  
    29    10    11 ar  
    30    11    12 ar  
    31    11    51 1   
    32    12    13 ar  
    33    12    52 1   
    34    13    14 ar  
    35    13    26 1   
    36    14    53 1   
    37    15    16 1   
    38    15    27 1   
    39    15    54 1   
    40    15    55 1   
    41    16    17 ar  
    42    17    18 ar  
    43    17    56 1   
    44    18    19 ar  
    45    18    57 1   
    46    19    58 1   
    47    20    25 ar  
    48    20    32 1   
    49    20    33 ar  
    50    21    22 1   
    51    21    29 1   
    52    21    59 1   
    53    22    23 1   
    54    22    30 1   
    55    22    60 1   
    56    23    31 1   
    57    23    32 1   
    58    23    61 1   
    59    24    32 1   
    60    24    36 2   
    61    24    62 1   
    62    25    36 1   
    63    25    37 ar  
    64    27    63 1   
    65    29    64 1   
    66    30    65 1   
    67    33    34 ar  
    68    34    35 ar  
    69    34    66 1   
    70    35    37 ar  
    71    37    38 1   
    72    38    67 1   
    73    38    68 1   
@<TRIPOS>SUBSTRUCTURE
     1 MJ7         1 TEMP              0 ****  ****    0 ROOT
