@<TRIPOS>MOLECULE
MJA
   53    54     1     0     0
SMALL
No Charge or Current Charge


@<TRIPOS>ATOM
      1 O16        -11.2490    28.2950   -33.2190 o          1 MJA      -0.739500
      2 C15        -10.5570    27.4940   -32.6110 c          1 MJA       0.728000
      3 O15         -9.3590    27.3440   -32.8020 o          1 MJA      -0.739500
      4 C14        -11.2280    26.5860   -31.5750 c3         1 MJA      -0.229400
      5 C13        -11.5800    25.2250   -32.2230 c3         1 MJA       0.168300
      6 O13        -12.8310    25.3380   -32.9100 oh         1 MJA      -0.660000
      7 C12        -11.6760    24.0740   -31.1850 c3         1 MJA      -0.106400
      8 C11        -11.5890    22.6540   -31.8080 c3         1 MJA       0.168300
      9 O11        -12.4980    21.7960   -31.1060 oh         1 MJA      -0.683000
     10 C10        -10.1820    21.9830   -31.7620 c3         1 MJA      -0.100400
     11 C9          -9.0260    22.6510   -32.5670 c3         1 MJA      -0.063400
     12 C1          -8.2630    23.8760   -31.9330 c6         1 MJA      -0.052700
     13 C8A         -7.0940    24.4140   -32.8350 c6         1 MJA      -0.042500
     14 C2          -7.7470    23.6170   -30.4770 c6         1 MJA      -0.024500
     15 C2M         -6.8140    22.3810   -30.3230 c3         1 MJA      -0.079100
     16 C3          -7.0230    24.8420   -29.9460 c2         1 MJA      -0.228200
     17 C4          -6.4360    25.7530   -30.7510 ce         1 MJA      -0.152000
     18 C4A         -6.4350    25.6700   -32.2200 ce         1 MJA      -0.082200
     19 C5          -5.8220    26.6110   -32.9780 c2         1 MJA      -0.180200
     20 C6          -5.7570    26.5930   -34.5010 c6         1 MJA      -0.016500
     21 C6M         -6.4860    27.8420   -35.0680 c3         1 MJA      -0.088100
     22 C7          -6.2750    25.2570   -35.1020 c6         1 MJA      -0.094400
     23 C8          -7.4750    24.6490   -34.3330 c6         1 MJA       0.200300
     24 O8          -8.6530    25.4480   -34.5000 oh         1 MJA      -0.712000
     25 H14        -10.4950    26.3630   -30.7900 hc         1 MJA       0.027700
     26 H14A       -12.1530    27.0300   -31.1870 hc         1 MJA       0.027700
     27 H13        -10.7910    24.9680   -32.9440 h1         1 MJA       0.095700
     28 HO13       -13.4750    25.6980   -32.2650 ho         1 MJA       0.422000
     29 H12        -10.8860    24.1700   -30.4320 hc         1 MJA       0.046700
     30 H12A       -12.6180    24.1870   -30.6340 hc         1 MJA       0.046700
     31 H11        -11.9020    22.7180   -32.8600 h1         1 MJA       0.050700
     32 HO11       -12.4350    20.9110   -31.5260 ho         1 MJA       0.424000
     33 H10         -9.8800    21.8310   -30.7200 hc         1 MJA       0.028200
     34 H10A       -10.2980    20.9720   -32.1730 hc         1 MJA       0.028200
     35 H9          -8.2900    21.8680   -32.7900 hc         1 MJA       0.042700
     36 H9A         -9.4430    22.9310   -33.5410 hc         1 MJA       0.042700
     37 H1          -8.9850    24.6900   -31.8520 hc         1 MJA       0.090700
     38 H8A         -6.3160    23.6390   -32.8530 hc         1 MJA       0.035700
     39 H2          -8.6070    23.4380   -29.8180 hc         1 MJA       0.047700
     40 H2M         -5.8930    22.4870   -30.9080 hc         1 MJA       0.025700
     41 H2MA        -6.5190    22.2460   -29.2760 hc         1 MJA       0.025700
     42 H2MB        -7.3090    21.4550   -30.6380 hc         1 MJA       0.025700
     43 H3          -6.9950    24.9580   -28.8620 ha         1 MJA       0.160000
     44 H4          -5.9330    26.6140   -30.3090 ha         1 MJA       0.165000
     45 H5          -5.3410    27.4660   -32.5010 ha         1 MJA       0.164000
     46 H6          -4.7050    26.7090   -34.7990 hc         1 MJA       0.023700
     47 H6M         -6.0320    28.7660   -34.6890 hc         1 MJA       0.045367
     48 H6MA        -6.4250    27.8730   -36.1620 hc         1 MJA       0.045367
     49 H6MB        -7.5450    27.8610   -34.7930 hc         1 MJA       0.045367
     50 H7          -6.5260    25.3830   -36.1640 hc         1 MJA       0.032700
     51 H7A         -5.4540    24.5270   -35.0810 hc         1 MJA       0.032700
     52 H8          -7.6620    23.6640   -34.7850 h1         1 MJA       0.034700
     53 HO8         -8.6560    26.1510   -33.7860 ho         1 MJA       0.527000
@<TRIPOS>BOND
     1     1     2 1   
     2     2     3 1   
     3     2     4 1   
     4     4     5 1   
     5     4    25 1   
     6     4    26 1   
     7     5     6 1   
     8     5     7 1   
     9     5    27 1   
    10     6    28 1   
    11     7     8 1   
    12     7    29 1   
    13     7    30 1   
    14     8     9 1   
    15     8    10 1   
    16     8    31 1   
    17     9    32 1   
    18    10    11 1   
    19    10    33 1   
    20    10    34 1   
    21    11    12 1   
    22    11    35 1   
    23    11    36 1   
    24    12    13 1   
    25    12    14 1   
    26    12    37 1   
    27    13    18 1   
    28    13    23 1   
    29    13    38 1   
    30    14    15 1   
    31    14    16 1   
    32    14    39 1   
    33    15    40 1   
    34    15    41 1   
    35    15    42 1   
    36    16    17 2   
    37    16    43 1   
    38    17    18 1   
    39    17    44 1   
    40    18    19 2   
    41    19    20 1   
    42    19    45 1   
    43    20    21 1   
    44    20    22 1   
    45    20    46 1   
    46    21    47 1   
    47    21    48 1   
    48    21    49 1   
    49    22    23 1   
    50    22    50 1   
    51    22    51 1   
    52    23    24 1   
    53    23    52 1   
    54    24    53 1   
@<TRIPOS>SUBSTRUCTURE
     1 MJA         1 TEMP              0 ****  ****    0 ROOT
