@<TRIPOS>MOLECULE
MJA
   53    54     1     0     0
SMALL
abcg2


@<TRIPOS>ATOM
      1 O16        -11.3270    28.7350   -32.4320 o          1 MJA      -0.739500
      2 C15        -10.6580    27.6770   -32.4760 c          1 MJA       0.728000
      3 O15         -9.6610    27.4740   -33.2310 o          1 MJA      -0.739500
      4 C14        -11.0430    26.5370   -31.5240 c3         1 MJA      -0.229400
      5 C13        -11.3930    25.2330   -32.2360 c3         1 MJA       0.168300
      6 O13        -12.5620    25.3860   -33.0620 oh         1 MJA      -0.660000
      7 C12        -11.5740    24.0780   -31.2490 c3         1 MJA      -0.106400
      8 C11        -11.4830    22.6920   -31.8880 c3         1 MJA       0.168300
      9 O11        -12.4730    21.8740   -31.2290 oh         1 MJA      -0.683000
     10 C10        -10.1160    22.0100   -31.7780 c3         1 MJA      -0.100400
     11 C9          -8.9530    22.6440   -32.5570 c3         1 MJA      -0.063400
     12 C1          -8.2660    23.8660   -31.9330 c6         1 MJA      -0.052700
     13 C8A         -7.1050    24.3840   -32.8110 c6         1 MJA      -0.042500
     14 C2          -7.7880    23.6350   -30.4830 c6         1 MJA      -0.024500
     15 C2M         -6.9130    22.3850   -30.2920 c3         1 MJA      -0.079100
     16 C3          -7.0830    24.8570   -29.9680 c2         1 MJA      -0.228200
     17 C4          -6.5280    25.7720   -30.7700 ce         1 MJA      -0.152000
     18 C4A         -6.5090    25.6490   -32.2210 ce         1 MJA      -0.082200
     19 C5          -5.9510    26.6030   -32.9820 c2         1 MJA      -0.180200
     20 C6          -5.8440    26.5710   -34.4770 c6         1 MJA      -0.016500
     21 C6M         -6.5720    27.7710   -35.1090 c3         1 MJA      -0.088100
     22 C7          -6.2970    25.2150   -35.0410 c6         1 MJA      -0.094400
     23 C8          -7.4670    24.5770   -34.2920 c6         1 MJA       0.200300
     24 O8          -8.6950    25.2710   -34.5060 oh         1 MJA      -0.712000
     25 H14        -10.1870    26.3520   -30.8690 hc         1 MJA       0.027700
     26 H14A       -11.8820    26.8420   -30.8930 hc         1 MJA       0.027700
     27 H13        -10.6070    24.9970   -32.9480 h1         1 MJA       0.095700
     28 HO13       -13.3020    25.6210   -32.4870 ho         1 MJA       0.422000
     29 H12        -10.8480    24.1630   -30.4380 hc         1 MJA       0.046700
     30 H12A       -12.5630    24.1810   -30.7930 hc         1 MJA       0.046700
     31 H11        -11.7520    22.7770   -32.9480 h1         1 MJA       0.050700
     32 HO11       -12.4090    20.9790   -31.5870 ho         1 MJA       0.424000
     33 H10         -9.8730    21.9060   -30.7170 hc         1 MJA       0.028200
     34 H10A       -10.2450    20.9920   -32.1620 hc         1 MJA       0.028200
     35 H9          -8.1960    21.8710   -32.7190 hc         1 MJA       0.042700
     36 H9A         -9.3180    22.9160   -33.5490 hc         1 MJA       0.042700
     37 H1          -8.9850    24.6800   -31.8760 hc         1 MJA       0.090700
     38 H8A         -6.3200    23.6170   -32.8010 hc         1 MJA       0.035700
     39 H2          -8.6770    23.4960   -29.8600 hc         1 MJA       0.047700
     40 H2M         -6.0260    22.4220   -30.9270 hc         1 MJA       0.025700
     41 H2MA        -6.5770    22.3160   -29.2550 hc         1 MJA       0.025700
     42 H2MB        -7.4630    21.4720   -30.5260 hc         1 MJA       0.025700
     43 H3          -7.0260    24.9790   -28.8910 ha         1 MJA       0.160000
     44 H4          -6.0420    26.6450   -30.3450 ha         1 MJA       0.165000
     45 H5          -5.5430    27.4830   -32.4890 ha         1 MJA       0.164000
     46 H6          -4.7830    26.6940   -34.7280 hc         1 MJA       0.023700
     47 H6M         -6.1820    28.7100   -34.7080 hc         1 MJA       0.045367
     48 H6MA        -6.4220    27.7770   -36.1910 hc         1 MJA       0.045367
     49 H6MB        -7.6410    27.7350   -34.9070 hc         1 MJA       0.045367
     50 H7          -6.5620    25.3170   -36.0960 hc         1 MJA       0.032700
     51 H7A         -5.4600    24.5110   -34.9900 hc         1 MJA       0.032700
     52 H8          -7.6290    23.5900   -34.7300 h1         1 MJA       0.034700
     53 HO8         -8.8410    26.0300   -33.8970 ho         1 MJA       0.527000
@<TRIPOS>BOND
     1     1     2 1   
     2     2     3 1   
     3     2     4 1   
     4     4     5 1   
     5     4    25 1   
     6     4    26 1   
     7     5     6 1   
     8     5     7 1   
     9     5    27 1   
    10     6    28 1   
    11     7     8 1   
    12     7    29 1   
    13     7    30 1   
    14     8     9 1   
    15     8    10 1   
    16     8    31 1   
    17     9    32 1   
    18    10    11 1   
    19    10    33 1   
    20    10    34 1   
    21    11    12 1   
    22    11    35 1   
    23    11    36 1   
    24    12    13 1   
    25    12    14 1   
    26    12    37 1   
    27    13    18 1   
    28    13    23 1   
    29    13    38 1   
    30    14    15 1   
    31    14    16 1   
    32    14    39 1   
    33    15    40 1   
    34    15    41 1   
    35    15    42 1   
    36    16    17 2   
    37    16    43 1   
    38    17    18 1   
    39    17    44 1   
    40    18    19 2   
    41    19    20 1   
    42    19    45 1   
    43    20    21 1   
    44    20    22 1   
    45    20    46 1   
    46    21    47 1   
    47    21    48 1   
    48    21    49 1   
    49    22    23 1   
    50    22    50 1   
    51    22    51 1   
    52    23    24 1   
    53    23    52 1   
    54    24    53 1   
@<TRIPOS>SUBSTRUCTURE
     1 MJA         1 TEMP              0 ****  ****    0 ROOT
