@<TRIPOS>MOLECULE
MJB
   23    23     1     0     0
SMALL
bcc


@<TRIPOS>ATOM
      1 C4          12.5910    -9.2470    -3.8700 c6         1 MJB       0.169300
      2 C5          13.5790    -8.0790    -3.8630 c6         1 MJB       0.159300
      3 C8           8.8730    -9.1880    -3.3420 c3         1 MJB       0.135400
      4 N6          13.3220    -7.2050    -2.7240 n7         1 MJB      -0.795200
      5 C2          11.3940    -8.4520    -1.9510 c6         1 MJB       0.169300
      6 N3          11.3050    -8.8100    -3.3650 n3         1 MJB      -0.714600
      7 C7          10.2500    -9.7600    -3.6340 c3         1 MJB       0.166800
      8 O9           7.9160   -10.1380    -3.7610 oh         1 MJB      -0.604800
      9 C1          12.7940    -7.9480    -1.5990 c6         1 MJB       0.159300
     10 H1          12.4710    -9.6020    -4.8950 h1         1 MJB       0.033200
     11 H2          12.9930   -10.0970    -3.2960 h1         1 MJB       0.033200
     12 H3          14.5950    -8.4940    -3.8620 h1         1 MJB       0.032200
     13 H4          13.4740    -7.5020    -4.7850 h1         1 MJB       0.032200
     14 H5           8.7640    -8.2360    -3.8790 h1         1 MJB       0.026200
     15 H6           8.7660    -8.9690    -2.2730 h1         1 MJB       0.026200
     16 H7          14.1720    -6.7260    -2.4590 hn         1 MJB       0.354800
     17 H9          10.6560    -7.6760    -1.7290 h1         1 MJB       0.033200
     18 H10         11.1620    -9.3110    -1.3010 h1         1 MJB       0.033200
     19 H12         10.3790   -10.6970    -3.0630 h1         1 MJB       0.041200
     20 H13         10.2930   -10.0260    -4.6940 h1         1 MJB       0.041200
     21 H14          7.0470    -9.8250    -3.4990 ho         1 MJB       0.405000
     22 H15         13.4320    -8.7940    -1.3000 h1         1 MJB       0.032200
     23 H16         12.7280    -7.2920    -0.7300 h1         1 MJB       0.032200
@<TRIPOS>BOND
     1     1     2 1   
     2     1     6 1   
     3     1    10 1   
     4     1    11 1   
     5     2     4 1   
     6     2    12 1   
     7     2    13 1   
     8     3     7 1   
     9     3     8 1   
    10     3    14 1   
    11     3    15 1   
    12     4     9 1   
    13     4    16 1   
    14     5     6 1   
    15     5     9 1   
    16     5    17 1   
    17     5    18 1   
    18     6     7 1   
    19     7    19 1   
    20     7    20 1   
    21     8    21 1   
    22     9    22 1   
    23     9    23 1   
@<TRIPOS>SUBSTRUCTURE
     1 MJB         1 TEMP              0 ****  ****    0 ROOT
