@<TRIPOS>MOLECULE
MJB
   23    23     1     0     0
SMALL
No Charge or Current Charge


@<TRIPOS>ATOM
      1 C4          12.6000    -9.2320    -3.9760 c6         1 MJB       0.169300
      2 C5          13.7110    -8.1290    -3.8340 c6         1 MJB       0.159300
      3 C8           8.7590    -9.2630    -3.3060 c3         1 MJB       0.158600
      4 N6          13.4880    -7.1600    -2.7160 n7         1 MJB      -0.850400
      5 C2          11.4230    -8.4700    -1.9500 c6         1 MJB       0.169300
      6 N3          11.2860    -8.8040    -3.4100 n3         1 MJB      -0.714600
      7 C7          10.1790    -9.7540    -3.7080 c3         1 MJB       0.166800
      8 O9           7.7580   -10.2140    -3.7070 oh         1 MJB      -0.667000
      9 C1          12.7820    -7.7810    -1.5610 c6         1 MJB       0.159300
     10 H1          12.5010    -9.4940    -5.0400 h1         1 MJB       0.033200
     11 H2          12.9420   -10.1410    -3.4580 h1         1 MJB       0.033200
     12 H3          14.6780    -8.6330    -3.6900 h1         1 MJB       0.032200
     13 H4          13.7840    -7.5620    -4.7740 h1         1 MJB       0.032200
     14 H5           8.5710    -8.2920    -3.7850 h1         1 MJB       0.026200
     15 H6           8.7190    -9.1130    -2.2190 h1         1 MJB       0.026200
     16 H7          14.3900    -6.7700    -2.4120 hn         1 MJB       0.410000
     17 H9          10.6030    -7.7990    -1.6560 h1         1 MJB       0.033200
     18 H10         11.3180    -9.3780    -1.3370 h1         1 MJB       0.033200
     19 H12         10.3680   -10.7120    -3.2040 h1         1 MJB       0.041200
     20 H13         10.1630    -9.9590    -4.7870 h1         1 MJB       0.041200
     21 H14          6.8880    -9.8420    -3.4410 ho         1 MJB       0.444000
     22 H15         13.4430    -8.5440    -1.1230 h1         1 MJB       0.032200
     23 H16         12.6020    -7.0270    -0.7820 h1         1 MJB       0.032200
@<TRIPOS>BOND
     1     1     2 1   
     2     1     6 1   
     3     1    10 1   
     4     1    11 1   
     5     2     4 1   
     6     2    12 1   
     7     2    13 1   
     8     3     7 1   
     9     3     8 1   
    10     3    14 1   
    11     3    15 1   
    12     4     9 1   
    13     4    16 1   
    14     5     6 1   
    15     5     9 1   
    16     5    17 1   
    17     5    18 1   
    18     6     7 1   
    19     7    19 1   
    20     7    20 1   
    21     8    21 1   
    22     9    22 1   
    23     9    23 1   
@<TRIPOS>SUBSTRUCTURE
     1 MJB         1 TEMP              0 ****  ****    0 ROOT
