@<TRIPOS>MOLECULE
MJD
   90    95     1     0     0
SMALL
No Charge or Current Charge


@<TRIPOS>ATOM
      1 CAE          6.3460     2.6370    -1.7140 c5         1 MJD      -0.135700
      2 CAH          6.7120     1.3720    -0.8900 c5         1 MJD      -0.071400
      3 CAG          5.3830     0.5980    -1.0070 c5         1 MJD      -0.128700
      4 CAJ          5.2260     0.0570    -2.4430 c6         1 MJD       0.190600
      5 OAI          5.0960     1.1570    -3.3510 os         1 MJD      -0.488000
      6 CAA          6.0080     2.2840    -3.2100 c5         1 MJD       0.395300
      7 OAB          5.2220     3.4310    -3.5480 os         1 MJD      -0.445000
      8 CAC          4.2410     3.5790    -2.4820 c5         1 MJD       0.164600
      9 CAD          4.9580     3.0720    -1.1660 c5         1 MJD      -0.101700
     10 CAF          4.3760     1.7250    -0.5520 c5         1 MJD       0.201300
     11 OAK          3.0410     1.4530    -1.0500 os         1 MJD      -0.447100
     12 CAL          2.3790     0.4450    -0.4100 c          1 MJD       0.639100
     13 OAM          2.7780    -0.1990     0.5490 o          1 MJD      -0.537000
     14 NAN          1.1530     0.2990    -0.9940 ns         1 MJD      -0.481900
     15 CAO          0.0930    -0.6010    -0.5280 c3         1 MJD       0.090700
     16 CAW         -0.9080     0.1690     0.3840 c3         1 MJD      -0.069100
     17 CBH         -0.2610     0.9060     1.5490 ca         1 MJD      -0.033300
     18 CBI         -0.0850     0.2610     2.7880 ca         1 MJD      -0.161000
     19 CBJ          0.5050     0.9450     3.8620 ca         1 MJD       0.203500
     20 FBV          0.6680     0.3190     5.0470 f          1 MJD      -0.173000
     21 CBK          0.9260     2.2730     3.7150 ca         1 MJD      -0.197000
     22 CBL          0.7520     2.9170     2.4830 ca         1 MJD       0.203500
     23 FBT          1.1590     4.1960     2.3330 f          1 MJD      -0.173000
     24 CBM          0.1560     2.2440     1.4060 ca         1 MJD      -0.161000
     25 CAT         -0.5690    -1.3200    -1.7470 c3         1 MJD       0.142300
     26 OBO         -1.3050    -0.3810    -2.5490 oh         1 MJD      -0.650000
     27 CAP         -1.5310    -2.4890    -1.3760 c3         1 MJD       0.191800
     28 NAQ         -2.6690    -2.6440    -2.3380 n3         1 MJD      -0.786500
     29 CBP         -2.3620    -3.1630    -3.7030 c3         1 MJD       0.232800
     30 CBQ         -1.4390    -4.4140    -3.8160 c3         1 MJD      -0.076700
     31 CBS         -1.9630    -5.6610    -3.0660 c3         1 MJD      -0.090600
     32 CBR         -1.1680    -4.7520    -5.3010 c3         1 MJD      -0.090600
     33 SAR         -4.2170    -2.9980    -1.7040 sy         1 MJD       1.200600
     34 OAU         -5.1710    -2.4910    -2.6960 o          1 MJD      -0.540500
     35 OAV         -4.2200    -4.3900    -1.2490 o          1 MJD      -0.540500
     36 CAS         -4.3070    -1.8820    -0.2940 ca         1 MJD      -0.312500
     37 CAX         -4.3520    -0.4870    -0.5220 ca         1 MJD       0.033000
     38 CBB         -4.2530    -2.3870     1.0350 ca         1 MJD      -0.039000
     39 CBA         -4.2100    -1.5040     2.1370 ca         1 MJD      -0.112000
     40 CAZ         -4.2230    -0.1250     1.8930 ca         1 MJD       0.160400
     41 NBE         -4.0990     0.9140     2.8190 nc         1 MJD      -0.671100
     42 CAY         -4.3120     0.3410     0.6040 ca         1 MJD      -0.014900
     43 OBC         -4.2520     1.6800     0.6640 os         1 MJD      -0.306700
     44 CBD         -4.1200     1.9610     1.9890 cd         1 MJD       0.798500
     45 NBF         -3.9220     3.2350     2.3840 nu         1 MJD      -0.881400
     46 CBG         -3.3150     3.6520     3.6470 c3         1 MJD       0.250500
     47 CBU         -2.4100     4.8710     3.3950 c3         1 MJD      -0.113100
     48 CBN         -4.4210     3.9500     4.6740 c3         1 MJD      -0.113100
     49 H1           7.1020     3.4280    -1.6470 hc         1 MJD       0.080700
     50 H2           7.5670     0.8260    -1.3080 hc         1 MJD       0.057700
     51 H3           6.9590     1.6180     0.1500 hc         1 MJD       0.057700
     52 H4           5.3620    -0.2720    -0.3420 hc         1 MJD       0.081700
     53 H5           6.1000    -0.5480    -2.7250 h1         1 MJD       0.046700
     54 H6           4.3310    -0.5750    -2.5230 h1         1 MJD       0.046700
     55 H7           6.8970     2.1750    -3.8450 h2         1 MJD       0.085700
     56 H8           3.9590     4.6380    -2.4080 h1         1 MJD       0.057200
     57 H9           3.3390     3.0170    -2.7530 h1         1 MJD       0.057200
     58 H10          5.0360     3.8570    -0.4050 hc         1 MJD       0.072700
     59 H11          4.3510     1.8100     0.5440 h1         1 MJD       0.070700
     60 H12          0.9600     0.9060    -1.7800 hn         1 MJD       0.332500
     61 H13          0.5640    -1.3810     0.0880 h1         1 MJD       0.091700
     62 H14         -1.4750     0.8840    -0.2240 hc         1 MJD       0.058700
     63 H15         -1.6440    -0.5350     0.7850 hc         1 MJD       0.058700
     64 H16         -0.4040    -0.7690     2.9210 ha         1 MJD       0.137000
     65 H17          1.3850     2.7980     4.5470 ha         1 MJD       0.150000
     66 H18          0.0260     2.7610     0.4590 ha         1 MJD       0.137000
     67 H19          0.2350    -1.7590    -2.3550 h1         1 MJD       0.093700
     68 H20         -2.1190    -0.8930    -2.7770 ho         1 MJD       0.445000
     69 H21         -0.9520    -3.4180    -1.3010 h1         1 MJD       0.062700
     70 H22         -1.8970    -2.3180    -0.3600 h1         1 MJD       0.062700
     71 H23         -3.2930    -3.3770    -4.2450 h1         1 MJD       0.060700
     72 H24         -1.8740    -2.3630    -4.2740 h1         1 MJD       0.060700
     73 H25         -0.4670    -4.1550    -3.3810 hc         1 MJD       0.044700
     74 H26         -2.9790    -5.9160    -3.3910 hc         1 MJD       0.038700
     75 H27         -1.3170    -6.5270    -3.2550 hc         1 MJD       0.038700
     76 H28         -1.9710    -5.4930    -1.9840 hc         1 MJD       0.038700
     77 H29         -0.7380    -3.8890    -5.8240 hc         1 MJD       0.038700
     78 H30         -0.4590    -5.5840    -5.3890 hc         1 MJD       0.038700
     79 H31         -2.0960    -5.0360    -5.8140 hc         1 MJD       0.038700
     80 H32         -4.3740    -0.0660    -1.5250 ha         1 MJD       0.151000
     81 H33         -4.2100    -3.4600     1.2160 ha         1 MJD       0.137000
     82 H34         -4.1370    -1.8830     3.1530 ha         1 MJD       0.137000
     83 H35         -3.8760     3.8740     1.5960 hn         1 MJD       0.509000
     84 H36         -2.6830     2.8430     4.0470 h1         1 MJD       0.082700
     85 H37         -2.9930     5.7260     3.0310 hc         1 MJD       0.048033
     86 H38         -1.9050     5.1700     4.3210 hc         1 MJD       0.048033
     87 H39         -1.6410     4.6350     2.6510 hc         1 MJD       0.048033
     88 H40         -5.0340     3.0590     4.8520 hc         1 MJD       0.048033
     89 H41         -3.9840     4.2570     5.6320 hc         1 MJD       0.048033
     90 H42         -5.0770     4.7550     4.3220 hc         1 MJD       0.048033
@<TRIPOS>BOND
     1     1     2 1   
     2     1     6 1   
     3     1     9 1   
     4     1    49 1   
     5     2     3 1   
     6     2    50 1   
     7     2    51 1   
     8     3     4 1   
     9     3    10 1   
    10     3    52 1   
    11     4     5 1   
    12     4    53 1   
    13     4    54 1   
    14     5     6 1   
    15     6     7 1   
    16     6    55 1   
    17     7     8 1   
    18     8     9 1   
    19     8    56 1   
    20     8    57 1   
    21     9    10 1   
    22     9    58 1   
    23    10    11 1   
    24    10    59 1   
    25    11    12 1   
    26    12    13 2   
    27    12    14 1   
    28    14    15 1   
    29    14    60 1   
    30    15    16 1   
    31    15    25 1   
    32    15    61 1   
    33    16    17 1   
    34    16    62 1   
    35    16    63 1   
    36    17    18 ar  
    37    17    24 ar  
    38    18    19 ar  
    39    18    64 1   
    40    19    20 1   
    41    19    21 ar  
    42    21    22 ar  
    43    21    65 1   
    44    22    23 1   
    45    22    24 ar  
    46    24    66 1   
    47    25    26 1   
    48    25    27 1   
    49    25    67 1   
    50    26    68 1   
    51    27    28 1   
    52    27    69 1   
    53    27    70 1   
    54    28    29 1   
    55    28    33 1   
    56    29    30 1   
    57    29    71 1   
    58    29    72 1   
    59    30    31 1   
    60    30    32 1   
    61    30    73 1   
    62    31    74 1   
    63    31    75 1   
    64    31    76 1   
    65    32    77 1   
    66    32    78 1   
    67    32    79 1   
    68    33    34 2   
    69    33    35 2   
    70    33    36 1   
    71    36    37 ar  
    72    36    38 ar  
    73    37    42 ar  
    74    37    80 1   
    75    38    39 ar  
    76    38    81 1   
    77    39    40 ar  
    78    39    82 1   
    79    40    41 1   
    80    40    42 ar  
    81    41    44 2   
    82    42    43 1   
    83    43    44 1   
    84    44    45 1   
    85    45    46 1   
    86    45    83 1   
    87    46    47 1   
    88    46    48 1   
    89    46    84 1   
    90    47    85 1   
    91    47    86 1   
    92    47    87 1   
    93    48    88 1   
    94    48    89 1   
    95    48    90 1   
@<TRIPOS>SUBSTRUCTURE
     1 MJD         1 TEMP              0 ****  ****    0 ROOT
