@<TRIPOS>MOLECULE
MJD
   90    95     1     0     0
SMALL
bcc


@<TRIPOS>ATOM
      1 CAE          5.7700     3.3660    -1.0820 c5         1 MJD      -0.135700
      2 CAH          6.3320     2.3730    -2.0820 c5         1 MJD      -0.071400
      3 CAG          5.1080     1.4860    -2.2790 c5         1 MJD      -0.128700
      4 CAJ          4.0980     2.2920    -3.0760 c6         1 MJD       0.167400
      5 OAI          3.6900     3.4710    -2.4100 os         1 MJD      -0.441600
      6 CAA          4.5950     4.1940    -1.6060 c5         1 MJD       0.348900
      7 OAB          3.9050     4.5630    -0.4580 os         1 MJD      -0.398600
      8 CAC          3.9190     3.4530     0.4450 c5         1 MJD       0.141400
      9 CAD          5.0350     2.5190    -0.0370 c5         1 MJD      -0.101700
     10 CAF          4.6590     1.2350    -0.8310 c5         1 MJD       0.178100
     11 OAK          3.2750     0.9460    -0.7220 os         1 MJD      -0.423900
     12 CAL          2.8760    -0.3300    -0.7020 c          1 MJD       0.755100
     13 OAM          3.6140    -1.2820    -0.8290 o          1 MJD      -0.586000
     14 NAN          1.5340    -0.3920    -0.5470 ns         1 MJD      -0.548900
     15 CAO          0.8630    -1.5920    -0.1020 c3         1 MJD       0.090700
     16 CAW          0.7410    -1.6120     1.4370 c3         1 MJD      -0.069100
     17 CBH          2.0690    -1.3620     2.0910 ca         1 MJD      -0.033300
     18 CBI          2.9590    -2.4140     2.2820 ca         1 MJD      -0.179000
     19 CBJ          4.2110    -2.1440     2.7940 ca         1 MJD       0.168400
     20 FBV          5.0690    -3.1580     2.9740 f          1 MJD      -0.137900
     21 CBK          4.6280    -0.8700     3.1290 ca         1 MJD      -0.215000
     22 CBL          3.7150     0.1480     2.9370 ca         1 MJD       0.168400
     23 FBT          4.0810     1.3990     3.2550 f          1 MJD      -0.137900
     24 CBM          2.4490    -0.0670     2.4310 ca         1 MJD      -0.179000
     25 CAT         -0.4890    -1.6890    -0.8270 c3         1 MJD       0.119100
     26 OBO         -1.2720    -0.5360    -0.6470 oh         1 MJD      -0.587800
     27 CAP         -1.2190    -2.9830    -0.4600 c3         1 MJD       0.191800
     28 NAQ         -2.5170    -3.1220    -1.0970 n3         1 MJD      -0.786500
     29 CBP         -2.5880    -3.1690    -2.5500 c3         1 MJD       0.232800
     30 CBQ         -2.0550    -4.4760    -3.1380 c3         1 MJD      -0.076700
     31 CBS         -2.8040    -5.6870    -2.5980 c3         1 MJD      -0.090600
     32 CBR         -2.1350    -4.4020    -4.6580 c3         1 MJD      -0.090600
     33 SAR         -3.8580    -3.1710    -0.1540 sy         1 MJD       1.342200
     34 OAU         -4.9890    -3.4750    -1.0180 o          1 MJD      -0.611300
     35 OAV         -3.5900    -4.0260     0.9930 o          1 MJD      -0.611300
     36 CAS         -4.0560    -1.5260     0.4590 ca         1 MJD      -0.312500
     37 CAX         -4.6530    -0.5830    -0.3820 ca         1 MJD       0.015000
     38 CBB         -3.5250    -1.1850     1.7030 ca         1 MJD      -0.057000
     39 CBA         -3.5490     0.1310     2.1550 ca         1 MJD      -0.130000
     40 CAZ         -4.1280     1.0880     1.3320 ca         1 MJD       0.160400
     41 NBE         -4.3070     2.4380     1.4920 nc         1 MJD      -0.671100
     42 CAY         -4.6660     0.6960     0.1020 ca         1 MJD      -0.014900
     43 OBC         -5.1750     1.8130    -0.4830 os         1 MJD      -0.306700
     44 CBD         -4.9180     2.8080     0.4010 cd         1 MJD       0.798500
     45 NBF         -5.2910     4.0280     0.0480 nu         1 MJD      -0.826200
     46 CBG         -5.1620     5.1790     0.9350 c3         1 MJD       0.250500
     47 CBU         -5.1480     6.4410     0.0870 c3         1 MJD      -0.113100
     48 CBN         -6.2700     5.2040     1.9800 c3         1 MJD      -0.113100
     49 H1           6.5120     4.0400    -0.6500 hc         1 MJD       0.080700
     50 H2           6.6760     2.8300    -3.0120 hc         1 MJD       0.057700
     51 H3           7.1730     1.8280    -1.6500 hc         1 MJD       0.057700
     52 H4           5.3190     0.5550    -2.8100 hc         1 MJD       0.081700
     53 H5           4.5410     2.5260    -4.0530 h1         1 MJD       0.046700
     54 H6           3.1870     1.7220    -3.2680 h1         1 MJD       0.046700
     55 H7           4.9040     5.1070    -2.1260 h2         1 MJD       0.085700
     56 H8           4.1390     3.8370     1.4410 h1         1 MJD       0.057200
     57 H9           2.9400     2.9720     0.4840 h1         1 MJD       0.057200
     58 H10          5.6790     2.2440     0.7980 hc         1 MJD       0.072700
     59 H11          5.2350     0.4010    -0.4260 h1         1 MJD       0.070700
     60 H12          1.0470     0.4770    -0.3850 hn         1 MJD       0.332500
     61 H13          1.4640    -2.4460    -0.4180 h1         1 MJD       0.091700
     62 H14          0.0260    -0.8520     1.7660 hc         1 MJD       0.058700
     63 H15          0.3540    -2.5790     1.7620 hc         1 MJD       0.058700
     64 H16          2.6830    -3.4280     2.0220 ha         1 MJD       0.155000
     65 H17          5.6150    -0.6800     3.5280 ha         1 MJD       0.168000
     66 H18          1.7660     0.7630     2.3050 ha         1 MJD       0.155000
     67 H19         -0.2520    -1.7090    -1.8950 h1         1 MJD       0.093700
     68 H20         -1.6590    -0.5290     0.2350 ho         1 MJD       0.406000
     69 H21         -0.5830    -3.8310    -0.7330 h1         1 MJD       0.062700
     70 H22         -1.3480    -3.0620     0.6200 h1         1 MJD       0.062700
     71 H23         -3.6220    -3.0270    -2.8630 h1         1 MJD       0.060700
     72 H24         -2.0300    -2.3230    -2.9590 h1         1 MJD       0.060700
     73 H25         -0.9990    -4.5760    -2.8640 hc         1 MJD       0.044700
     74 H26         -3.8690    -5.6270    -2.8330 hc         1 MJD       0.038700
     75 H27         -2.4160    -6.6070    -3.0380 hc         1 MJD       0.038700
     76 H28         -2.7070    -5.7770    -1.5150 hc         1 MJD       0.038700
     77 H29         -1.5790    -3.5470    -5.0480 hc         1 MJD       0.038700
     78 H30         -1.7210    -5.3020    -5.1150 hc         1 MJD       0.038700
     79 H31         -3.1700    -4.3080    -4.9940 hc         1 MJD       0.038700
     80 H32         -5.0700    -0.8410    -1.3460 ha         1 MJD       0.169000
     81 H33         -3.0910    -1.9480     2.3350 ha         1 MJD       0.155000
     82 H34         -3.1350     0.3920     3.1190 ha         1 MJD       0.155000
     83 H35         -5.8570     4.1270    -0.7820 hn         1 MJD       0.453800
     84 H36         -4.1990     5.0860     1.4410 h1         1 MJD       0.082700
     85 H37         -6.0840     6.5530    -0.4650 hc         1 MJD       0.048033
     86 H38         -5.0330     7.3180     0.7230 hc         1 MJD       0.048033
     87 H39         -4.3260     6.4300    -0.6290 hc         1 MJD       0.048033
     88 H40         -6.2570     4.3010     2.5900 hc         1 MJD       0.048033
     89 H41         -6.1430     6.0590     2.6450 hc         1 MJD       0.048033
     90 H42         -7.2500     5.2860     1.5060 hc         1 MJD       0.048033
@<TRIPOS>BOND
     1     1     2 1   
     2     1     6 1   
     3     1     9 1   
     4     1    49 1   
     5     2     3 1   
     6     2    50 1   
     7     2    51 1   
     8     3     4 1   
     9     3    10 1   
    10     3    52 1   
    11     4     5 1   
    12     4    53 1   
    13     4    54 1   
    14     5     6 1   
    15     6     7 1   
    16     6    55 1   
    17     7     8 1   
    18     8     9 1   
    19     8    56 1   
    20     8    57 1   
    21     9    10 1   
    22     9    58 1   
    23    10    11 1   
    24    10    59 1   
    25    11    12 1   
    26    12    13 2   
    27    12    14 1   
    28    14    15 1   
    29    14    60 1   
    30    15    16 1   
    31    15    25 1   
    32    15    61 1   
    33    16    17 1   
    34    16    62 1   
    35    16    63 1   
    36    17    18 ar  
    37    17    24 ar  
    38    18    19 ar  
    39    18    64 1   
    40    19    20 1   
    41    19    21 ar  
    42    21    22 ar  
    43    21    65 1   
    44    22    23 1   
    45    22    24 ar  
    46    24    66 1   
    47    25    26 1   
    48    25    27 1   
    49    25    67 1   
    50    26    68 1   
    51    27    28 1   
    52    27    69 1   
    53    27    70 1   
    54    28    29 1   
    55    28    33 1   
    56    29    30 1   
    57    29    71 1   
    58    29    72 1   
    59    30    31 1   
    60    30    32 1   
    61    30    73 1   
    62    31    74 1   
    63    31    75 1   
    64    31    76 1   
    65    32    77 1   
    66    32    78 1   
    67    32    79 1   
    68    33    34 2   
    69    33    35 2   
    70    33    36 1   
    71    36    37 ar  
    72    36    38 ar  
    73    37    42 ar  
    74    37    80 1   
    75    38    39 ar  
    76    38    81 1   
    77    39    40 ar  
    78    39    82 1   
    79    40    41 1   
    80    40    42 ar  
    81    41    44 2   
    82    42    43 1   
    83    43    44 1   
    84    44    45 1   
    85    45    46 1   
    86    45    83 1   
    87    46    47 1   
    88    46    48 1   
    89    46    84 1   
    90    47    85 1   
    91    47    86 1   
    92    47    87 1   
    93    48    88 1   
    94    48    89 1   
    95    48    90 1   
@<TRIPOS>SUBSTRUCTURE
     1 MJD         1 TEMP              0 ****  ****    0 ROOT
