@<TRIPOS>MOLECULE
MJF
   37    38     1     0     0
SMALL
bcc


@<TRIPOS>ATOM
      1 O18          0.7800    -1.5930     1.5950 o          1 MJF      -0.517100
      2 C8           0.9660    -0.5590     0.9870 c          1 MJF       0.591700
      3 C2           2.3570    -0.1720     0.5990 ca         1 MJF      -0.131600
      4 C3           3.4070    -1.0410     0.8990 ca         1 MJF      -0.073500
      5 C4           4.7120    -0.7220     0.5740 ca         1 MJF      -0.148500
      6 C5           4.9730     0.4880    -0.0550 ca         1 MJF       0.029400
      7 CL7          6.6020     0.8980    -0.4620 cl         1 MJF      -0.161400
      8 C6           3.9510     1.3720    -0.3630 ca         1 MJF      -0.148500
      9 C1           2.6480     1.0340    -0.0360 ca         1 MJF      -0.073500
     10 C9          -0.1610     0.3570     0.5910 c3         1 MJF      -0.161400
     11 C10         -1.5630    -0.2480     0.6870 c3         1 MJF       0.041600
     12 C11         -1.7800    -1.4590    -0.2500 c3         1 MJF      -0.312700
     13 C15         -3.2920    -1.7780    -0.3330 c          1 MJF       0.949600
     14 O17         -3.8560    -2.0220     0.7540 o          1 MJF      -0.871550
     15 O16         -3.8300    -1.7620    -1.4540 o          1 MJF      -0.871550
     16 C12         -1.1460    -1.4440    -1.6460 c          1 MJF       0.949600
     17 O14         -0.8690    -2.5700    -2.1130 o          1 MJF      -0.871550
     18 O13         -0.9650    -0.3620    -2.2450 o          1 MJF      -0.871550
     19 C19         -2.5820     0.8650     0.5650 ca         1 MJF      -0.010300
     20 C24         -3.1850     1.3660     1.7180 ca         1 MJF      -0.104000
     21 C23         -4.0940     2.4140     1.6620 ca         1 MJF      -0.160500
     22 C22         -4.4220     2.9850     0.4400 ca         1 MJF      -0.170000
     23 C21         -3.8300     2.4950    -0.7170 ca         1 MJF      -0.160500
     24 C20         -2.9220     1.4450    -0.6560 ca         1 MJF      -0.104000
     25 H91C        -0.0890     1.2250     1.2600 hc         1 MJF       0.058700
     26 H92C         0.0040     0.7410    -0.4160 hc         1 MJF       0.058700
     27 H3           3.2030    -1.9800     1.3940 ha         1 MJF       0.154500
     28 H1           1.8630     1.7350    -0.2850 ha         1 MJF       0.154500
     29 H4           5.5180    -1.4050     0.8080 ha         1 MJF       0.131000
     30 H6           4.1650     2.3120    -0.8530 ha         1 MJF       0.131000
     31 H10         -1.6800    -0.6410     1.7000 hc         1 MJF       0.037700
     32 H11         -1.3270    -2.3100     0.2680 hc         1 MJF       0.040700
     33 H24         -2.9410     0.9260     2.6780 ha         1 MJF       0.159000
     34 H20         -2.4560     1.0690    -1.5560 ha         1 MJF       0.159000
     35 H23         -4.5500     2.7810     2.5740 ha         1 MJF       0.095000
     36 H22         -5.1300     3.8030     0.3910 ha         1 MJF       0.086000
     37 H21         -4.0790     2.9310    -1.6770 ha         1 MJF       0.095000
@<TRIPOS>BOND
     1     1     2 2   
     2     2     3 1   
     3     2    10 1   
     4     3     4 ar  
     5     3     9 ar  
     6     4     5 ar  
     7     4    27 1   
     8     5     6 ar  
     9     5    29 1   
    10     6     7 1   
    11     6     8 ar  
    12     8     9 ar  
    13     8    30 1   
    14     9    28 1   
    15    10    11 1   
    16    10    25 1   
    17    10    26 1   
    18    11    12 1   
    19    11    19 1   
    20    11    31 1   
    21    12    13 1   
    22    12    16 1   
    23    12    32 1   
    24    13    14 1   
    25    13    15 1   
    26    16    17 1   
    27    16    18 1   
    28    19    20 ar  
    29    19    24 ar  
    30    20    21 ar  
    31    20    33 1   
    32    21    22 ar  
    33    21    35 1   
    34    22    23 ar  
    35    22    36 1   
    36    23    24 ar  
    37    23    37 1   
    38    24    34 1   
@<TRIPOS>SUBSTRUCTURE
     1 MJF         1 TEMP              0 ****  ****    0 ROOT
