@<TRIPOS>MOLECULE
MJF
   37    38     1     0     0
SMALL
No Charge or Current Charge


@<TRIPOS>ATOM
      1 O18          0.9920     0.2570     2.8520 o          1 MJF      -0.517100
      2 C8           1.0540     0.4600     1.6440 c          1 MJF       0.591700
      3 C2           2.2790     0.0270     0.8680 ca         1 MJF      -0.131600
      4 C3           2.9740    -1.1350     1.2740 ca         1 MJF      -0.055500
      5 C4           4.1200    -1.5620     0.5810 ca         1 MJF      -0.130500
      6 C5           4.5900    -0.8290    -0.5180 ca         1 MJF       0.121000
      7 Cl7          6.0270    -1.3620    -1.3810 cl         1 MJF      -0.253000
      8 C6           3.9190     0.3340    -0.9230 ca         1 MJF      -0.130500
      9 C1           2.7710     0.7650    -0.2360 ca         1 MJF      -0.055500
     10 C9          -0.1130     1.1710     0.9320 c3         1 MJF      -0.161400
     11 C10         -1.3570     0.2490     0.7710 c3         1 MJF       0.041600
     12 C11         -1.1070    -0.9310    -0.2310 c3         1 MJF      -0.312700
     13 C15         -2.1260    -2.0610    -0.1560 c          1 MJF       0.739000
     14 O17         -1.7210    -3.1590     0.2000 o          1 MJF      -0.766250
     15 O16         -3.3000    -1.8510    -0.4110 o          1 MJF      -0.766250
     16 C12         -0.8990    -0.5520    -1.6930 c          1 MJF       0.739000
     17 O14          0.1810    -0.8230    -2.1940 o          1 MJF      -0.766250
     18 O13         -1.7860     0.0050    -2.3190 o          1 MJF      -0.766250
     19 C19         -2.6390     1.0720     0.5350 ca         1 MJF      -0.010300
     20 C24         -3.8090     0.7670     1.2640 ca         1 MJF      -0.086000
     21 C23         -4.9750     1.5390     1.1110 ca         1 MJF      -0.142500
     22 C22         -4.9850     2.6310     0.2300 ca         1 MJF      -0.152000
     23 C21         -3.8280     2.9510    -0.4960 ca         1 MJF      -0.142500
     24 C20         -2.6620     2.1800    -0.3430 ca         1 MJF      -0.086000
     25 H91C        -0.4020     2.0320     1.5470 hc         1 MJF       0.058700
     26 H92C         0.1850     1.5170    -0.0610 hc         1 MJF       0.058700
     27 H3           2.6200    -1.7150     2.1240 ha         1 MJF       0.136500
     28 H1           2.2870     1.6830    -0.5600 ha         1 MJF       0.136500
     29 H4           4.6440    -2.4610     0.8980 ha         1 MJF       0.113000
     30 H6           4.2920     0.9060    -1.7690 ha         1 MJF       0.113000
     31 H10         -1.4830    -0.2320     1.7500 hc         1 MJF       0.037700
     32 H11         -0.1620    -1.3870     0.0860 hc         1 MJF       0.040700
     33 H24         -3.8160    -0.0740     1.9550 ha         1 MJF       0.141000
     34 H20         -1.7770     2.4460    -0.9160 ha         1 MJF       0.141000
     35 H23         -5.8690     1.2890     1.6770 ha         1 MJF       0.077000
     36 H22         -5.8860     3.2280     0.1120 ha         1 MJF       0.068000
     37 H21         -3.8330     3.7980    -1.1780 ha         1 MJF       0.077000
@<TRIPOS>BOND
     1     1     2 2   
     2     2     3 1   
     3     2    10 1   
     4     3     4 ar  
     5     3     9 ar  
     6     4     5 ar  
     7     4    27 1   
     8     5     6 ar  
     9     5    29 1   
    10     6     7 1   
    11     6     8 ar  
    12     8     9 ar  
    13     8    30 1   
    14     9    28 1   
    15    10    11 1   
    16    10    25 1   
    17    10    26 1   
    18    11    12 1   
    19    11    19 1   
    20    11    31 1   
    21    12    13 1   
    22    12    16 1   
    23    12    32 1   
    24    13    14 1   
    25    13    15 1   
    26    16    17 1   
    27    16    18 1   
    28    19    20 ar  
    29    19    24 ar  
    30    20    21 ar  
    31    20    33 1   
    32    21    22 ar  
    33    21    35 1   
    34    22    23 ar  
    35    22    36 1   
    36    23    24 ar  
    37    23    37 1   
    38    24    34 1   
@<TRIPOS>SUBSTRUCTURE
     1 MJF         1 TEMP              0 ****  ****    0 ROOT
