@<TRIPOS>MOLECULE
MJG
   84    87     1     0     0
SMALL
abcg2


@<TRIPOS>ATOM
      1 C1           5.0520    -0.1170    -1.1690 ca         1 MJG       0.192100
      2 C2           4.9330     0.0810     0.2090 ca         1 MJG      -0.199600
      3 C3           4.5870    -0.9840     1.0170 ca         1 MJG       0.007000
      4 C4           4.3420    -2.2420     0.4750 ca         1 MJG      -0.199000
      5 C5           4.4690    -2.4580    -0.9000 ca         1 MJG       0.032700
      6 C6           4.8200    -1.3790    -1.7090 ca         1 MJG      -0.219000
      7 O7           5.3770     0.9690    -1.8850 os         1 MJG      -0.337100
      8 C8           5.4730     0.8650    -3.2940 c3         1 MJG       0.145900
      9 C9           5.2660     1.4200     0.7970 c          1 MJG       0.636700
     10 N10          4.2690     2.3230     0.8530 n          1 MJG      -0.402800
     11 O11          6.3950     1.6350     1.2130 o          1 MJG      -0.582100
     12 C12          2.9320     2.1230     0.3300 c6         1 MJG       0.080000
     13 C13          2.6560     3.0950    -0.8110 c6         1 MJG       0.076500
     14 N14          2.9100     4.4570    -0.3850 n          1 MJG      -0.418800
     15 C15          4.2410     4.6570     0.1570 c6         1 MJG       0.076500
     16 C16          4.5050     3.6840     1.2980 c6         1 MJG       0.080000
     17 C17          2.0250     5.4780    -0.4720 c          1 MJG       0.608100
     18 C18          0.6650     5.1680    -1.0520 c3         1 MJG      -0.177100
     19 O19          2.3050     6.6110    -0.1020 o          1 MJG      -0.601100
     20 S20          3.8860    -3.5480     1.5890 ss         1 MJG       0.128000
     21 C21          1.5580    -4.8700     0.8000 cc         1 MJG       0.356900
     22 C22          2.1970    -3.7430     1.2030 cd         1 MJG      -0.303000
     23 S23          1.0380    -2.4650     1.3820 ss         1 MJG      -0.099400
     24 C24         -0.2000    -3.5750     0.8730 cd         1 MJG       0.596300
     25 N25          0.2090    -4.7740     0.6210 nc         1 MJG      -0.664000
     26 N26         -1.4860    -3.1070     0.7490 ns         1 MJG      -0.484400
     27 C27         -2.6100    -3.8580     0.4900 c          1 MJG       0.621700
     28 C28         -3.8530    -3.0620     0.3080 ca         1 MJG      -0.162600
     29 C29         -5.0730    -3.6830     0.5700 ca         1 MJG      -0.072500
     30 C30         -6.2590    -2.9870     0.4140 ca         1 MJG      -0.108500
     31 C31         -6.2650    -1.6670    -0.0290 ca         1 MJG      -0.058300
     32 C32         -5.0450    -1.0550    -0.3080 ca         1 MJG      -0.108500
     33 C33         -3.8540    -1.7410    -0.1420 ca         1 MJG      -0.072500
     34 O34         -2.5990    -5.0670     0.4300 o          1 MJG      -0.514100
     35 C35         -7.5640    -0.9300    -0.2300 c3         1 MJG       0.210100
     36 N36         -7.4320     0.4740     0.0780 n7         1 MJG      -0.882400
     37 C37         -8.5530     1.3130    -0.3250 c3         1 MJG       0.189500
     38 C38         -8.1030     2.7940    -0.4110 c3         1 MJG      -0.035000
     39 C39         -6.9860     2.9130    -1.4510 c3         1 MJG      -0.082767
     40 C40         -9.2740     3.6710    -0.8600 c3         1 MJG      -0.082767
     41 C41         -7.5820     3.3060     0.9340 c3         1 MJG      -0.082767
     42 C42          4.2130    -3.7940    -1.5240 c3         1 MJG      -0.062800
     43 C43         -9.7960     1.0880     0.5380 c3         1 MJG      -0.126100
     44 H3           4.4850    -0.8360     2.0850 ha         1 MJG       0.137000
     45 H6           4.9090    -1.5430    -2.7750 ha         1 MJG       0.123000
     46 H8           5.7290     1.8570    -3.6560 h1         1 MJG       0.046033
     47 H8A          6.2540     0.1650    -3.5970 h1         1 MJG       0.046033
     48 H8B          4.5250     0.5590    -3.7430 h1         1 MJG       0.046033
     49 H12          2.7990     1.1010    -0.0160 h1         1 MJG       0.064200
     50 H12A         2.2090     2.2920     1.1340 h1         1 MJG       0.064200
     51 H13          3.2990     2.8490    -1.6620 h1         1 MJG       0.062200
     52 H13A         1.6270     2.9710    -1.1340 h1         1 MJG       0.062200
     53 H15          4.9830     4.4990    -0.6330 h1         1 MJG       0.062200
     54 H15A         4.3420     5.6780     0.5120 h1         1 MJG       0.062200
     55 H16          3.8410     3.9060     2.1390 h1         1 MJG       0.064200
     56 H16A         5.5300     3.7870     1.6440 h1         1 MJG       0.064200
     57 H18          0.1260     4.4380    -0.4470 hc         1 MJG       0.059700
     58 H18A         0.0790     6.0820    -1.0850 hc         1 MJG       0.059700
     59 H18B         0.7350     4.7670    -2.0630 hc         1 MJG       0.059700
     60 HN26        -1.6200    -2.1240     0.9290 hn         1 MJG       0.332500
     61 H29         -5.0930    -4.7070     0.9170 ha         1 MJG       0.122500
     62 H30         -7.1970    -3.4790     0.6460 ha         1 MJG       0.126500
     63 H32         -5.0330    -0.0310    -0.6550 ha         1 MJG       0.126500
     64 H33         -2.9300    -1.2370    -0.3990 ha         1 MJG       0.122500
     65 H35         -7.8500    -1.0190    -1.2840 h1         1 MJG       0.040700
     66 H35A        -8.3540    -1.4490     0.3340 h1         1 MJG       0.040700
     67 HN36        -7.2540     0.5830     1.0690 hn         1 MJG       0.417000
     68 H37         -8.8070     1.0130    -1.3490 h1         1 MJG       0.052700
     69 H39         -7.3220     2.5650    -2.4320 hc         1 MJG       0.033700
     70 H39A        -6.6700     3.9520    -1.5610 hc         1 MJG       0.033700
     71 H39B        -6.1170     2.3220    -1.1670 hc         1 MJG       0.033700
     72 H40        -10.0640     3.7310    -0.1100 hc         1 MJG       0.033700
     73 H40A        -8.9300     4.6910    -1.0480 hc         1 MJG       0.033700
     74 H40B        -9.7200     3.3020    -1.7880 hc         1 MJG       0.033700
     75 H41         -6.7020     2.7510     1.2640 hc         1 MJG       0.033700
     76 H41A        -7.2850     4.3540     0.8510 hc         1 MJG       0.033700
     77 H41B        -8.3360     3.2470     1.7210 hc         1 MJG       0.033700
     78 H42          3.1440    -4.0090    -1.5580 hc         1 MJG       0.056033
     79 H42A         4.5900    -3.8290    -2.5450 hc         1 MJG       0.056033
     80 H42B         4.6800    -4.5980    -0.9560 hc         1 MJG       0.056033
     81 H43        -10.6680     1.6180     0.1560 hc         1 MJG       0.038033
     82 H43A       -10.0560     0.0290     0.5630 hc         1 MJG       0.038033
     83 H43B        -9.6370     1.4070     1.5710 hc         1 MJG       0.038033
     84 H21          2.0550    -5.8130     0.6160 h4         1 MJG       0.051100
@<TRIPOS>BOND
     1     1     2 ar  
     2     1     6 ar  
     3     1     7 1   
     4     2     3 ar  
     5     2     9 1   
     6     3     4 ar  
     7     3    44 1   
     8     4     5 ar  
     9     4    20 1   
    10     5     6 ar  
    11     5    42 1   
    12     6    45 1   
    13     7     8 1   
    14     8    46 1   
    15     8    47 1   
    16     8    48 1   
    17     9    10 1   
    18     9    11 2   
    19    10    12 1   
    20    10    16 1   
    21    12    13 1   
    22    12    49 1   
    23    12    50 1   
    24    13    14 1   
    25    13    51 1   
    26    13    52 1   
    27    14    15 1   
    28    14    17 1   
    29    15    16 1   
    30    15    53 1   
    31    15    54 1   
    32    16    55 1   
    33    16    56 1   
    34    17    18 1   
    35    17    19 2   
    36    18    57 1   
    37    18    58 1   
    38    18    59 1   
    39    20    22 1   
    40    21    22 2   
    41    21    25 1   
    42    21    84 1   
    43    22    23 1   
    44    23    24 1   
    45    24    25 2   
    46    24    26 1   
    47    26    27 1   
    48    26    60 1   
    49    27    28 1   
    50    27    34 2   
    51    28    29 ar  
    52    28    33 ar  
    53    29    30 ar  
    54    29    61 1   
    55    30    31 ar  
    56    30    62 1   
    57    31    32 ar  
    58    31    35 1   
    59    32    33 ar  
    60    32    63 1   
    61    33    64 1   
    62    35    36 1   
    63    35    65 1   
    64    35    66 1   
    65    36    37 1   
    66    36    67 1   
    67    37    38 1   
    68    37    43 1   
    69    37    68 1   
    70    38    39 1   
    71    38    40 1   
    72    38    41 1   
    73    39    69 1   
    74    39    70 1   
    75    39    71 1   
    76    40    72 1   
    77    40    73 1   
    78    40    74 1   
    79    41    75 1   
    80    41    76 1   
    81    41    77 1   
    82    42    78 1   
    83    42    79 1   
    84    42    80 1   
    85    43    81 1   
    86    43    82 1   
    87    43    83 1   
@<TRIPOS>SUBSTRUCTURE
     1 MJG         1 TEMP              0 ****  ****    0 ROOT
