@<TRIPOS>MOLECULE
MJG
   84    87     1     0     0
SMALL
No Charge or Current Charge


@<TRIPOS>ATOM
      1 C1           5.5670    -0.6470    -0.3050 ca         1 MJG       0.192100
      2 C2           4.6340    -0.1680     0.6380 ca         1 MJG      -0.199600
      3 C3           4.0130    -1.0750     1.5160 ca         1 MJG       0.007000
      4 C4           4.2630    -2.4550     1.4240 ca         1 MJG      -0.199000
      5 C5           5.1770    -2.9420     0.4690 ca         1 MJG       0.032700
      6 C6           5.8280    -2.0330    -0.3850 ca         1 MJG      -0.219000
      7 O7           6.2380     0.2600    -1.1050 os         1 MJG      -0.337100
      8 C8           7.1980    -0.1360    -2.1000 c3         1 MJG       0.145900
      9 C9           4.2960     1.2930     0.7720 c          1 MJG       0.636700
     10 N10          4.1200     2.0620    -0.4000 n          1 MJG      -0.402800
     11 O11          4.2400     1.8130     1.8810 o          1 MJG      -0.582100
     12 C12          3.3740     1.4810    -1.5470 c6         1 MJG       0.080000
     13 C13          3.6220     2.2090    -2.8900 c6         1 MJG       0.076500
     14 N14          3.5220     3.6970    -2.8220 n          1 MJG      -0.418800
     15 C15          4.1650     4.2920    -1.6150 c6         1 MJG       0.076500
     16 C16          3.9140     3.5280    -0.2930 c6         1 MJG       0.080000
     17 C17          3.4200     4.4700    -4.0040 c          1 MJG       0.608100
     18 C18          2.7870     3.8400    -5.2470 c3         1 MJG      -0.177100
     19 O19          3.7700     5.6430    -4.0230 o          1 MJG      -0.601100
     20 S20          3.3940    -3.5700     2.5300 ss         1 MJG       0.128000
     21 C21          1.5330    -3.7850     0.5340 cc         1 MJG       0.356900
     22 C22          1.8690    -3.2010     1.7230 cd         1 MJG      -0.303000
     23 S23          0.6390    -2.1360     2.3470 ss         1 MJG      -0.099400
     24 C24         -0.2610    -2.5180     0.8720 cd         1 MJG       0.596300
     25 N25          0.3130    -3.3850     0.0450 nc         1 MJG      -0.664000
     26 N26         -1.4570    -1.8900     0.6510 ns         1 MJG      -0.484400
     27 C27         -2.3320    -2.0310    -0.4020 c          1 MJG       0.621700
     28 C28         -3.5400    -1.1100    -0.3850 ca         1 MJG      -0.162600
     29 C29         -4.5180    -1.2340    -1.4010 ca         1 MJG      -0.072500
     30 C30         -5.6410    -0.3890    -1.4290 ca         1 MJG      -0.108500
     31 C31         -5.8130     0.6020    -0.4440 ca         1 MJG      -0.058300
     32 C32         -4.8500     0.7320     0.5730 ca         1 MJG      -0.108500
     33 C33         -3.7250    -0.1100     0.6070 ca         1 MJG      -0.072500
     34 O34         -2.1630    -2.8360    -1.3070 o          1 MJG      -0.514100
     35 C35         -7.0190     1.5320    -0.4800 c3         1 MJG       0.210100
     36 N36         -8.0300     1.1120     0.5110 n7         1 MJG      -0.882400
     37 C37         -9.2290     1.9680     0.6630 c3         1 MJG       0.189500
     38 C38         -9.9270     1.7100     2.0580 c3         1 MJG      -0.035000
     39 C39         -8.9150     1.9830     3.2100 c3         1 MJG      -0.082767
     40 C40        -11.1250     2.6850     2.2520 c3         1 MJG      -0.082767
     41 C41        -10.4500     0.2490     2.1900 c3         1 MJG      -0.082767
     42 C42          5.4800    -4.4310     0.3570 c3         1 MJG      -0.062800
     43 C43        -10.1450     1.7710    -0.5740 c3         1 MJG      -0.126100
     44 H3           3.3090    -0.7070     2.2610 ha         1 MJG       0.137000
     45 H6           6.5420    -2.4200    -1.1050 ha         1 MJG       0.123000
     46 H8           7.5930     0.7470    -2.6170 h1         1 MJG       0.046033
     47 H8A          8.0420    -0.6650    -1.6390 h1         1 MJG       0.046033
     48 H8B          6.7360    -0.7900    -2.8500 h1         1 MJG       0.046033
     49 H12          3.6120     0.4180    -1.6780 h1         1 MJG       0.064200
     50 H12A         2.3000     1.5350    -1.3180 h1         1 MJG       0.064200
     51 H13          4.6300     1.9480    -3.2450 h1         1 MJG       0.062200
     52 H13A         2.9080     1.8070    -3.6200 h1         1 MJG       0.062200
     53 H15          5.2490     4.3320    -1.7910 h1         1 MJG       0.062200
     54 H15A         3.8220     5.3280    -1.4840 h1         1 MJG       0.062200
     55 H16          2.8800     3.7110     0.0310 h1         1 MJG       0.064200
     56 H16A         4.5760     3.9420     0.4820 h1         1 MJG       0.064200
     57 H18          1.8460     3.3530    -4.9680 hc         1 MJG       0.059700
     58 H18A         2.6420     4.5650    -6.0570 hc         1 MJG       0.059700
     59 H18B         3.4080     3.0010    -5.5800 hc         1 MJG       0.059700
     60 HN26        -1.7480    -1.2190     1.3430 hn         1 MJG       0.332500
     61 H29         -4.4120    -1.9880    -2.1820 ha         1 MJG       0.122500
     62 H30         -6.3780    -0.5050    -2.2230 ha         1 MJG       0.126500
     63 H32         -4.9740     1.4950     1.3410 ha         1 MJG       0.126500
     64 H33         -3.0070     0.0390     1.4100 ha         1 MJG       0.122500
     65 H35         -6.6810     2.5570    -0.2690 h1         1 MJG       0.040700
     66 H35A        -7.4380     1.5310    -1.4960 h1         1 MJG       0.040700
     67 HN36        -8.3330     0.1570     0.2930 hn         1 MJG       0.417000
     68 H37         -8.9130     3.0220     0.6650 h1         1 MJG       0.052700
     69 H39         -8.5040     2.9970     3.1380 hc         1 MJG       0.033700
     70 H39A        -9.3990     1.8850     4.1900 hc         1 MJG       0.033700
     71 H39B        -8.0780     1.2750     3.1880 hc         1 MJG       0.033700
     72 H40        -11.9430     2.4660     1.5560 hc         1 MJG       0.033700
     73 H40A       -11.5360     2.6040     3.2660 hc         1 MJG       0.033700
     74 H40B       -10.8140     3.7260     2.0990 hc         1 MJG       0.033700
     75 H41         -9.6370    -0.4790     2.0790 hc         1 MJG       0.033700
     76 H41A       -10.9050     0.0880     3.1760 hc         1 MJG       0.033700
     77 H41B       -11.2140     0.0260     1.4370 hc         1 MJG       0.033700
     78 H42          4.5780    -4.9990     0.1000 hc         1 MJG       0.056033
     79 H42A         6.2270    -4.6390    -0.4180 hc         1 MJG       0.056033
     80 H42B         5.8720    -4.8250     1.3020 hc         1 MJG       0.056033
     81 H43        -11.0370     2.4030    -0.5160 hc         1 MJG       0.038033
     82 H43A        -9.6250     2.0520    -1.4970 hc         1 MJG       0.038033
     83 H43B       -10.4670     0.7280    -0.6740 hc         1 MJG       0.038033
     84 H21          2.1220    -4.4920    -0.0360 h4         1 MJG       0.051100
@<TRIPOS>BOND
     1     1     2 ar  
     2     1     6 ar  
     3     1     7 1   
     4     2     3 ar  
     5     2     9 1   
     6     3     4 ar  
     7     3    44 1   
     8     4     5 ar  
     9     4    20 1   
    10     5     6 ar  
    11     5    42 1   
    12     6    45 1   
    13     7     8 1   
    14     8    46 1   
    15     8    47 1   
    16     8    48 1   
    17     9    10 1   
    18     9    11 2   
    19    10    12 1   
    20    10    16 1   
    21    12    13 1   
    22    12    49 1   
    23    12    50 1   
    24    13    14 1   
    25    13    51 1   
    26    13    52 1   
    27    14    15 1   
    28    14    17 1   
    29    15    16 1   
    30    15    53 1   
    31    15    54 1   
    32    16    55 1   
    33    16    56 1   
    34    17    18 1   
    35    17    19 2   
    36    18    57 1   
    37    18    58 1   
    38    18    59 1   
    39    20    22 1   
    40    21    22 2   
    41    21    25 1   
    42    21    84 1   
    43    22    23 1   
    44    23    24 1   
    45    24    25 2   
    46    24    26 1   
    47    26    27 1   
    48    26    60 1   
    49    27    28 1   
    50    27    34 2   
    51    28    29 ar  
    52    28    33 ar  
    53    29    30 ar  
    54    29    61 1   
    55    30    31 ar  
    56    30    62 1   
    57    31    32 ar  
    58    31    35 1   
    59    32    33 ar  
    60    32    63 1   
    61    33    64 1   
    62    35    36 1   
    63    35    65 1   
    64    35    66 1   
    65    36    37 1   
    66    36    67 1   
    67    37    38 1   
    68    37    43 1   
    69    37    68 1   
    70    38    39 1   
    71    38    40 1   
    72    38    41 1   
    73    39    69 1   
    74    39    70 1   
    75    39    71 1   
    76    40    72 1   
    77    40    73 1   
    78    40    74 1   
    79    41    75 1   
    80    41    76 1   
    81    41    77 1   
    82    42    78 1   
    83    42    79 1   
    84    42    80 1   
    85    43    81 1   
    86    43    82 1   
    87    43    83 1   
@<TRIPOS>SUBSTRUCTURE
     1 MJG         1 TEMP              0 ****  ****    0 ROOT
