@<TRIPOS>MOLECULE
MJH
   51    53     1     0     0
SMALL
abcg2


@<TRIPOS>ATOM
      1 N2          59.0630   -15.4470   163.9950 ns         1 MJH      -0.498900
      2 C2          61.0290   -16.7350   164.5000 c5         1 MJH       0.026700
      3 O1          59.5260   -18.2950   166.1050 o          1 MJH      -0.628100
      4 C3          59.6990   -16.6050   163.7700 c          1 MJH       0.603100
      5 C4          57.8240   -15.0490   163.3640 c3         1 MJH       0.099000
      6 C5          56.8110   -14.5140   164.3650 c3         1 MJH      -0.106700
      7 C6          56.3230   -15.5210   165.3550 cc         1 MJH       0.218300
      8 C7          56.5720   -16.8640   165.4240 cd         1 MJH      -0.190000
      9 C8          55.2410   -16.2510   167.0490 cd         1 MJH       0.378400
     10 C9          62.1920   -16.2830   163.6000 c5         1 MJH      -0.086400
     11 C10         63.3240   -17.2280   163.9820 c5         1 MJH      -0.096400
     12 C11         62.6030   -18.5460   164.2120 c5         1 MJH       0.109000
     13 C12         61.4240   -20.2050   167.4890 c3         1 MJH      -0.068100
     14 C13         62.6370   -19.3380   167.6760 ca         1 MJH      -0.083300
     15 C14         62.5110   -17.9910   168.0100 ca         1 MJH      -0.106000
     16 C15         63.6290   -17.1740   168.1100 ca         1 MJH      -0.111500
     17 C16         64.8960   -17.6930   167.8780 ca         1 MJH      -0.111000
     18 C17         65.0350   -19.0360   167.5500 ca         1 MJH      -0.111500
     19 C18         63.9140   -19.8490   167.4520 ca         1 MJH      -0.106000
     20 N           59.7510   -21.0660   165.8210 n8         1 MJH      -0.979200
     21 C           60.9140   -20.2240   166.0310 c3         1 MJH       0.094500
     22 O           59.3070   -17.4670   162.9980 o          1 MJH      -0.597100
     23 N1          61.3410   -18.1180   164.8070 n          1 MJH      -0.385800
     24 N3          55.8730   -17.3080   166.5100 na         1 MJH      -0.296500
     25 N4          55.4900   -15.1540   166.3800 nc         1 MJH      -0.684000
     26 H1          59.4710   -14.8020   164.6530 hn         1 MJH       0.311500
     27 H2          61.0130   -16.1440   165.4220 h1         1 MJH       0.065700
     28 H3          58.0190   -14.2780   162.6140 h1         1 MJH       0.055200
     29 H4          57.4200   -15.9100   162.8330 h1         1 MJH       0.055200
     30 H5          57.2370   -13.6560   164.8950 hc         1 MJH       0.055200
     31 H6          55.9660   -14.1140   163.7980 hc         1 MJH       0.055200
     32 H7          57.1810   -17.5250   164.8330 h4         1 MJH       0.180000
     33 H8          54.6170   -16.3330   167.9260 h5         1 MJH       0.049100
     34 H9          62.4320   -15.2320   163.7540 hc         1 MJH       0.060700
     35 H10         61.9360   -16.4180   162.5470 hc         1 MJH       0.060700
     36 H11         64.0930   -17.3040   163.2130 hc         1 MJH       0.057700
     37 H12         63.8000   -16.9040   164.9100 hc         1 MJH       0.057700
     38 H13         62.4270   -19.0730   163.2700 h1         1 MJH       0.055700
     39 H14         63.1610   -19.2020   164.8750 h1         1 MJH       0.055700
     40 H15         60.6100   -19.8670   168.1360 hc         1 MJH       0.055700
     41 H16         61.6520   -21.2360   167.7710 hc         1 MJH       0.055700
     42 H17         61.5270   -17.5760   168.1970 ha         1 MJH       0.117000
     43 H18         63.5090   -16.1300   168.3710 ha         1 MJH       0.113500
     44 H19         65.7680   -17.0570   167.9570 ha         1 MJH       0.113000
     45 H20         66.0190   -19.4520   167.3720 ha         1 MJH       0.113500
     46 H21         64.0330   -20.8960   167.1980 ha         1 MJH       0.117000
     47 H22         59.9700   -22.0130   166.1020 hn         1 MJH       0.403500
     48 H23         58.9950   -20.7570   166.4210 hn         1 MJH       0.403500
     49 H25         61.7120   -20.6130   165.3970 h1         1 MJH       0.070700
     50 H26         55.8430   -18.2560   166.8490 hn         1 MJH       0.352000
     51 C1          60.5370   -18.8030   165.6330 c          1 MJH       0.627100
@<TRIPOS>BOND
     1     1     4 1   
     2     1     5 1   
     3     1    26 1   
     4     2     4 1   
     5     2    10 1   
     6     2    23 1   
     7     2    27 1   
     8     3    51 2   
     9     4    22 2   
    10     5     6 1   
    11     5    28 1   
    12     5    29 1   
    13     6     7 1   
    14     6    30 1   
    15     6    31 1   
    16     7     8 2   
    17     7    25 1   
    18     8    24 1   
    19     8    32 1   
    20     9    24 1   
    21     9    25 2   
    22     9    33 1   
    23    10    11 1   
    24    10    34 1   
    25    10    35 1   
    26    11    12 1   
    27    11    36 1   
    28    11    37 1   
    29    12    23 1   
    30    12    38 1   
    31    12    39 1   
    32    13    14 1   
    33    13    21 1   
    34    13    40 1   
    35    13    41 1   
    36    14    15 ar  
    37    14    19 ar  
    38    15    16 ar  
    39    15    42 1   
    40    16    17 ar  
    41    16    43 1   
    42    17    18 ar  
    43    17    44 1   
    44    18    19 ar  
    45    18    45 1   
    46    19    46 1   
    47    20    21 1   
    48    20    47 1   
    49    20    48 1   
    50    21    49 1   
    51    21    51 1   
    52    23    51 1   
    53    24    50 1   
@<TRIPOS>SUBSTRUCTURE
     1 MJH         1 TEMP              0 ****  ****    0 ROOT
