@<TRIPOS>MOLECULE
MJH
   51    53     1     0     0
SMALL
No Charge or Current Charge


@<TRIPOS>ATOM
      1 N2          59.0230   -15.2280   163.7550 ns         1 MJH      -0.498900
      2 C2          60.8230   -16.6280   164.5060 c5         1 MJH       0.026700
      3 O1          59.3890   -18.3300   166.2700 o          1 MJH      -0.628100
      4 C3          59.4540   -16.5410   163.7560 c          1 MJH       0.603100
      5 C4          57.7540   -14.7620   163.1870 c3         1 MJH       0.099000
      6 C5          56.7300   -14.3940   164.2790 c3         1 MJH      -0.106700
      7 C6          56.3650   -15.5400   165.1850 cc         1 MJH       0.218300
      8 C7          55.9580   -16.7950   164.8250 cd         1 MJH      -0.190000
      9 C8          56.0490   -16.5780   167.0460 cd         1 MJH       0.378400
     10 C9          61.9560   -16.2760   163.4930 c5         1 MJH      -0.086400
     11 C10         63.1770   -17.0010   164.1030 c5         1 MJH      -0.096400
     12 C11         62.5740   -18.3800   164.4600 c5         1 MJH       0.109000
     13 C12         61.4950   -20.2780   167.6350 c3         1 MJH      -0.068100
     14 C13         62.7590   -19.4380   167.7710 ca         1 MJH      -0.083300
     15 C14         62.6730   -18.0710   168.1030 ca         1 MJH      -0.106000
     16 C15         63.8360   -17.2880   168.1900 ca         1 MJH      -0.111500
     17 C16         65.0930   -17.8670   167.9510 ca         1 MJH      -0.111000
     18 C17         65.1860   -19.2310   167.6270 ca         1 MJH      -0.111500
     19 C18         64.0220   -20.0140   167.5380 ca         1 MJH      -0.106000
     20 N           59.8530   -21.3130   166.0660 n8         1 MJH      -0.979200
     21 C           60.9070   -20.2460   166.2000 c3         1 MJH       0.094500
     22 O           58.8350   -17.4540   163.2220 o          1 MJH      -0.597100
     23 N1          61.2330   -17.9940   164.9490 n          1 MJH      -0.385800
     24 N3          55.7570   -17.4610   166.0240 na         1 MJH      -0.296500
     25 N4          56.4090   -15.4050   166.5430 nc         1 MJH      -0.684000
     26 H1          59.6170   -14.5510   164.2190 hn         1 MJH       0.311500
     27 H2          60.8160   -15.9400   165.3620 h1         1 MJH       0.065700
     28 H3          57.9560   -13.8770   162.5690 h1         1 MJH       0.055200
     29 H4          57.3310   -15.5340   162.5300 h1         1 MJH       0.055200
     30 H5          57.1290   -13.5590   164.8680 hc         1 MJH       0.055200
     31 H6          55.8220   -14.0210   163.7920 hc         1 MJH       0.055200
     32 H7          55.8160   -17.2420   163.8470 h4         1 MJH       0.180000
     33 H8          55.9720   -16.8490   168.0930 h5         1 MJH       0.049100
     34 H9          62.1100   -15.1950   163.3930 hc         1 MJH       0.060700
     35 H10         61.7360   -16.6660   162.4910 hc         1 MJH       0.060700
     36 H11         64.0200   -17.0790   163.4070 hc         1 MJH       0.057700
     37 H12         63.5380   -16.4850   165.0010 hc         1 MJH       0.057700
     38 H13         62.4920   -19.0270   163.5760 h1         1 MJH       0.055700
     39 H14         63.1820   -18.8930   165.2130 h1         1 MJH       0.055700
     40 H15         60.7350   -19.9330   168.3470 hc         1 MJH       0.055700
     41 H16         61.7200   -21.3160   167.9130 hc         1 MJH       0.055700
     42 H17         61.7040   -17.6110   168.2850 ha         1 MJH       0.117000
     43 H18         63.7630   -16.2320   168.4410 ha         1 MJH       0.113500
     44 H19         65.9940   -17.2610   168.0170 ha         1 MJH       0.113000
     45 H20         66.1590   -19.6810   167.4410 ha         1 MJH       0.113500
     46 H21         64.1040   -21.0680   167.2770 ha         1 MJH       0.117000
     47 H22         60.1930   -22.1880   166.4820 hn         1 MJH       0.403500
     48 H23         59.0480   -21.0590   166.6520 hn         1 MJH       0.403500
     49 H25         61.7110   -20.5320   165.5100 h1         1 MJH       0.070700
     50 H26         55.4600   -18.4210   166.1500 hn         1 MJH       0.352000
     51 C1          60.4390   -18.7830   165.8200 c          1 MJH       0.627100
@<TRIPOS>BOND
     1     1     4 1   
     2     1     5 1   
     3     1    26 1   
     4     2     4 1   
     5     2    10 1   
     6     2    23 1   
     7     2    27 1   
     8     3    51 2   
     9     4    22 2   
    10     5     6 1   
    11     5    28 1   
    12     5    29 1   
    13     6     7 1   
    14     6    30 1   
    15     6    31 1   
    16     7     8 2   
    17     7    25 1   
    18     8    24 1   
    19     8    32 1   
    20     9    24 1   
    21     9    25 2   
    22     9    33 1   
    23    10    11 1   
    24    10    34 1   
    25    10    35 1   
    26    11    12 1   
    27    11    36 1   
    28    11    37 1   
    29    12    23 1   
    30    12    38 1   
    31    12    39 1   
    32    13    14 1   
    33    13    21 1   
    34    13    40 1   
    35    13    41 1   
    36    14    15 ar  
    37    14    19 ar  
    38    15    16 ar  
    39    15    42 1   
    40    16    17 ar  
    41    16    43 1   
    42    17    18 ar  
    43    17    44 1   
    44    18    19 ar  
    45    18    45 1   
    46    19    46 1   
    47    20    21 1   
    48    20    47 1   
    49    20    48 1   
    50    21    49 1   
    51    21    51 1   
    52    23    51 1   
    53    24    50 1   
@<TRIPOS>SUBSTRUCTURE
     1 MJH         1 TEMP              0 ****  ****    0 ROOT
