@<TRIPOS>MOLECULE
MJI
   75    74     1     0     0
SMALL
abcg2


@<TRIPOS>ATOM
      1 C1           1.5630     0.3720    -4.0270 c3         1 MJI       0.152600
      2 O1           0.8090     0.1150    -2.8760 os         1 MJI      -0.415000
      3 C2           0.7820    -0.0900    -5.2430 c3         1 MJI       0.241300
      4 O2          -0.4240     0.6350    -5.3530 os         1 MJI      -0.576400
      5 C3           1.6030     0.1360    -6.4980 c3         1 MJI       0.148600
      6 O3           0.9040    -0.3970    -7.5960 os         1 MJI      -0.399000
      7 C31          1.5200    -0.1180    -8.8130 c3         1 MJI       0.098600
      8 C32          0.6570    -0.7040    -9.9040 c3         1 MJI       0.304000
      9 F31          1.1930    -0.4620   -11.1080 f          1 MJI      -0.112333
     10 F32          0.5250    -2.0300    -9.7870 f          1 MJI      -0.112333
     11 F33         -0.5770    -0.1900    -9.9080 f          1 MJI      -0.112333
     12 P2          -1.8930    -0.0850    -5.3750 p5         1 MJI       1.405800
     13 O21         -1.7770    -1.5620    -5.5910 o          1 MJI      -0.823500
     14 O22         -2.7700     0.7570    -6.2490 o          1 MJI      -0.823500
     15 C2P         -3.5470    -0.2450    -3.3640 c3         1 MJI       0.214900
     16 O23         -2.2800     0.1990    -3.8010 os         1 MJI      -0.594400
     17 C11          1.5120     0.3660    -1.6840 c3         1 MJI       0.170600
     18 C12          0.5780     0.1900    -0.5030 c3         1 MJI      -0.081400
     19 C13          1.3050     0.3470     0.8270 c3         1 MJI      -0.072400
     20 C14          0.3700     0.2590     2.0270 c3         1 MJI      -0.075400
     21 C15          1.0990     0.3210     3.3630 c3         1 MJI      -0.074400
     22 C16          0.1590     0.2720     4.5610 c3         1 MJI      -0.075400
     23 C17          0.8880     0.2480     5.8990 c3         1 MJI      -0.074400
     24 C18         -0.0550     0.2120     7.0960 c3         1 MJI      -0.075400
     25 C19          0.6710     0.1290     8.4330 c3         1 MJI      -0.074400
     26 C20         -0.2730     0.0960     9.6290 c3         1 MJI      -0.074400
     27 C21          0.4500    -0.0160    10.9650 c3         1 MJI      -0.074400
     28 C22         -0.4950    -0.0470    12.1600 c3         1 MJI      -0.074400
     29 C23          0.2270    -0.1670    13.4970 c3         1 MJI      -0.074400
     30 C24         -0.7190    -0.1960    14.6910 c3         1 MJI      -0.075400
     31 C25         -0.0000    -0.3120    16.0290 c3         1 MJI      -0.074400
     32 C26         -0.9590    -0.3380    17.2120 c3         1 MJI      -0.088100
     33 H11          1.8010     1.4440    -4.1110 h1         1 MJI       0.006200
     34 H12          2.5210    -0.1660    -4.0030 h1         1 MJI       0.006200
     35 H21          0.5830    -1.1620    -5.1430 h1         1 MJI       0.078700
     36 H31          1.7830     1.2110    -6.6390 h1         1 MJI       0.013700
     37 H32          2.5850    -0.3450    -6.3910 h1         1 MJI       0.013700
     38 H311         1.6220     0.9620    -8.9910 h1         1 MJI       0.040200
     39 H312         2.5240    -0.5570    -8.8900 h1         1 MJI       0.040200
     40 H2P1        -3.6350    -0.0240    -2.3000 h1         1 MJI       0.002700
     41 H2P2        -4.3660     0.2590    -3.8860 h1         1 MJI       0.002700
     42 H2P3        -3.6750    -1.3240    -3.4960 h1         1 MJI       0.002700
     43 H111         1.9240     1.3860    -1.6820 h1         1 MJI       0.003200
     44 H112         2.3690    -0.3180    -1.5930 h1         1 MJI       0.003200
     45 H121         0.1150    -0.8000    -0.5500 hc         1 MJI       0.062200
     46 H122        -0.2340     0.9200    -0.5710 hc         1 MJI       0.062200
     47 H131         1.8320     1.3070     0.8500 hc         1 MJI       0.029700
     48 H132         2.0770    -0.4250     0.9120 hc         1 MJI       0.029700
     49 H141        -0.2040    -0.6730     1.9740 hc         1 MJI       0.041700
     50 H142        -0.3650     1.0700     1.9720 hc         1 MJI       0.041700
     51 H151         1.7020     1.2360     3.4100 hc         1 MJI       0.033700
     52 H152         1.8090    -0.5110     3.4250 hc         1 MJI       0.033700
     53 H161        -0.4800    -0.6150     4.4840 hc         1 MJI       0.038200
     54 H162        -0.5160     1.1340     4.5280 hc         1 MJI       0.038200
     55 H171         1.5410     1.1240     5.9770 hc         1 MJI       0.034700
     56 H172         1.5490    -0.6250     5.9340 hc         1 MJI       0.034700
     57 H181        -0.7300    -0.6460     6.9980 hc         1 MJI       0.037700
     58 H182        -0.6940     1.1020     7.0820 hc         1 MJI       0.037700
     59 H191         1.3520     0.9810     8.5320 hc         1 MJI       0.035700
     60 H192         1.3030    -0.7660     8.4470 hc         1 MJI       0.035700
     61 H201        -0.9650    -0.7460     9.5200 hc         1 MJI       0.037200
     62 H202        -0.8940     0.9990     9.6260 hc         1 MJI       0.037200
     63 H211         1.1450     0.8240    11.0750 hc         1 MJI       0.036200
     64 H212         1.0680    -0.9210    10.9680 hc         1 MJI       0.036200
     65 H221        -1.1930    -0.8840    12.0480 hc         1 MJI       0.037200
     66 H222        -1.1090     0.8610    12.1600 hc         1 MJI       0.037200
     67 H231         0.9260     0.6690    13.6090 hc         1 MJI       0.036200
     68 H232         0.8410    -1.0750    13.4980 hc         1 MJI       0.036200
     69 H241        -1.4170    -1.0340    14.5800 hc         1 MJI       0.036700
     70 H242        -1.3350     0.7110    14.6880 hc         1 MJI       0.036700
     71 H251         0.6960     0.5250    16.1390 hc         1 MJI       0.035700
     72 H252         0.6140    -1.2180    16.0340 hc         1 MJI       0.035700
     73 H261        -0.4270    -0.4150    18.1610 hc         1 MJI       0.030700
     74 H262        -1.5650     0.5690    17.2460 hc         1 MJI       0.030700
     75 H263        -1.6410    -1.1880    17.1460 hc         1 MJI       0.030700
@<TRIPOS>BOND
     1     1     2 1   
     2     1     3 1   
     3     1    33 1   
     4     1    34 1   
     5     2    17 1   
     6     3     4 1   
     7     3     5 1   
     8     3    35 1   
     9     4    12 1   
    10     5     6 1   
    11     5    36 1   
    12     5    37 1   
    13     6     7 1   
    14     7     8 1   
    15     7    38 1   
    16     7    39 1   
    17     8     9 1   
    18     8    10 1   
    19     8    11 1   
    20    12    13 1   
    21    12    14 1   
    22    12    16 1   
    23    15    16 1   
    24    15    40 1   
    25    15    41 1   
    26    15    42 1   
    27    17    18 1   
    28    17    43 1   
    29    17    44 1   
    30    18    19 1   
    31    18    45 1   
    32    18    46 1   
    33    19    20 1   
    34    19    47 1   
    35    19    48 1   
    36    20    21 1   
    37    20    49 1   
    38    20    50 1   
    39    21    22 1   
    40    21    51 1   
    41    21    52 1   
    42    22    23 1   
    43    22    53 1   
    44    22    54 1   
    45    23    24 1   
    46    23    55 1   
    47    23    56 1   
    48    24    25 1   
    49    24    57 1   
    50    24    58 1   
    51    25    26 1   
    52    25    59 1   
    53    25    60 1   
    54    26    27 1   
    55    26    61 1   
    56    26    62 1   
    57    27    28 1   
    58    27    63 1   
    59    27    64 1   
    60    28    29 1   
    61    28    65 1   
    62    28    66 1   
    63    29    30 1   
    64    29    67 1   
    65    29    68 1   
    66    30    31 1   
    67    30    69 1   
    68    30    70 1   
    69    31    32 1   
    70    31    71 1   
    71    31    72 1   
    72    32    73 1   
    73    32    74 1   
    74    32    75 1   
@<TRIPOS>SUBSTRUCTURE
     1 MJI         1 TEMP              0 ****  ****    0 ROOT
