@<TRIPOS>MOLECULE
MJI
   75    74     1     0     0
SMALL
No Charge or Current Charge


@<TRIPOS>ATOM
      1 C1           1.5340     0.4120    -4.1500 c3         1 MJI       0.152600
      2 O1           0.8030     0.1940    -2.9310 os         1 MJI      -0.415000
      3 C2           0.6060     0.1530    -5.3680 c3         1 MJI       0.241300
      4 O2          -0.3460     1.2350    -5.4630 os         1 MJI      -0.576400
      5 C3           1.4160     0.0850    -6.6930 c3         1 MJI       0.148600
      6 O3           0.5760    -0.3890    -7.7610 os         1 MJI      -0.399000
      7 C31          1.2310    -0.4820    -9.0430 c3         1 MJI       0.098600
      8 C32          0.2290    -1.0010   -10.1050 c3         1 MJI       0.304000
      9 F31          0.8280    -1.0990   -11.3140 f          1 MJI      -0.112333
     10 F32         -0.2440    -2.2260    -9.7770 f          1 MJI      -0.112333
     11 F33         -0.8270    -0.1640   -10.2340 f          1 MJI      -0.112333
     12 P2          -1.9320     0.9710    -5.6130 p5         1 MJI       1.405800
     13 O21         -2.2630    -0.3200    -6.2850 o          1 MJI      -0.823500
     14 O22         -2.5810     2.1260    -6.3030 o          1 MJI      -0.823500
     15 C2P         -2.2820    -0.2470    -3.2940 c3         1 MJI       0.214900
     16 O23         -2.3560     0.9600    -4.0560 os         1 MJI      -0.594400
     17 C11          1.5590     0.4170    -1.7340 c3         1 MJI       0.170600
     18 C12          0.6250     0.1540    -0.5390 c3         1 MJI      -0.081400
     19 C13          1.3230     0.3480     0.8260 c3         1 MJI      -0.072400
     20 C14          0.3870     0.0860     2.0260 c3         1 MJI      -0.075400
     21 C15          1.0850     0.2790     3.3900 c3         1 MJI      -0.074400
     22 C16          0.1490     0.0170     4.5900 c3         1 MJI      -0.075400
     23 C17          0.8480     0.2100     5.9540 c3         1 MJI      -0.074400
     24 C18         -0.0880    -0.0520     7.1550 c3         1 MJI      -0.075400
     25 C19          0.6110     0.1400     8.5180 c3         1 MJI      -0.074400
     26 C20         -0.3240    -0.1220     9.7190 c3         1 MJI      -0.074400
     27 C21          0.3740     0.0700    11.0830 c3         1 MJI      -0.074400
     28 C22         -0.5610    -0.1920    12.2830 c3         1 MJI      -0.074400
     29 C23          0.1380     0.0000    13.6470 c3         1 MJI      -0.074400
     30 C24         -0.7970    -0.2620    14.8480 c3         1 MJI      -0.075400
     31 C25         -0.0990    -0.0700    16.2120 c3         1 MJI      -0.074400
     32 C26         -1.0310    -0.3310    17.4100 c3         1 MJI      -0.088100
     33 H11          1.9220     1.4390    -4.1940 h1         1 MJI       0.006200
     34 H12          2.3890    -0.2750    -4.1970 h1         1 MJI       0.006200
     35 H21          0.1130    -0.8170    -5.2210 h1         1 MJI       0.078700
     36 H31          1.8180     1.0790    -6.9270 h1         1 MJI       0.013700
     37 H32          2.2650    -0.5990    -6.5570 h1         1 MJI       0.013700
     38 H311         1.6060     0.5010    -9.3560 h1         1 MJI       0.040200
     39 H312         2.0840    -1.1710    -8.9910 h1         1 MJI       0.040200
     40 H2P1        -2.0450    -0.0200    -2.2470 h1         1 MJI       0.002700
     41 H2P2        -3.2460    -0.7720    -3.3180 h1         1 MJI       0.002700
     42 H2P3        -1.5130    -0.9270    -3.6780 h1         1 MJI       0.002700
     43 H111         1.9270     1.4500    -1.6950 h1         1 MJI       0.003200
     44 H112         2.4190    -0.2640    -1.6880 h1         1 MJI       0.003200
     45 H121         0.2380    -0.8700    -0.6070 hc         1 MJI       0.062200
     46 H122        -0.2350     0.8310    -0.6050 hc         1 MJI       0.062200
     47 H131         1.7120     1.3720     0.8880 hc         1 MJI       0.029700
     48 H132         2.1850    -0.3280     0.8870 hc         1 MJI       0.029700
     49 H141        -0.0030    -0.9380     1.9620 hc         1 MJI       0.041700
     50 H142        -0.4760     0.7610     1.9640 hc         1 MJI       0.041700
     51 H151         1.4740     1.3030     3.4530 hc         1 MJI       0.033700
     52 H152         1.9480    -0.3960     3.4510 hc         1 MJI       0.033700
     53 H161        -0.2400    -1.0070     4.5260 hc         1 MJI       0.038200
     54 H162        -0.7130     0.6920     4.5290 hc         1 MJI       0.038200
     55 H171         1.2370     1.2340     6.0180 hc         1 MJI       0.034700
     56 H172         1.7100    -0.4650     6.0150 hc         1 MJI       0.034700
     57 H181        -0.4770    -1.0760     7.0910 hc         1 MJI       0.037700
     58 H182        -0.9500     0.6230     7.0930 hc         1 MJI       0.037700
     59 H191         1.0000     1.1640     8.5820 hc         1 MJI       0.035700
     60 H192         1.4740    -0.5350     8.5800 hc         1 MJI       0.035700
     61 H201        -0.7140    -1.1460     9.6550 hc         1 MJI       0.037200
     62 H202        -1.1870     0.5530     9.6580 hc         1 MJI       0.037200
     63 H211         0.7640     1.0940    11.1460 hc         1 MJI       0.036200
     64 H212         1.2370    -0.6050    11.1440 hc         1 MJI       0.036200
     65 H221        -0.9500    -1.2160    12.2200 hc         1 MJI       0.037200
     66 H222        -1.4230     0.4830    12.2220 hc         1 MJI       0.037200
     67 H231         0.5280     1.0240    13.7110 hc         1 MJI       0.036200
     68 H232         1.0010    -0.6750    13.7080 hc         1 MJI       0.036200
     69 H241        -1.1870    -1.2860    14.7840 hc         1 MJI       0.036700
     70 H242        -1.6600     0.4140    14.7870 hc         1 MJI       0.036700
     71 H251         0.2910     0.9540    16.2800 hc         1 MJI       0.035700
     72 H252         0.7630    -0.7450    16.2770 hc         1 MJI       0.035700
     73 H261        -0.4920    -0.1830    18.3530 hc         1 MJI       0.030700
     74 H262        -1.8870     0.3540    17.3920 hc         1 MJI       0.030700
     75 H263        -1.4100    -1.3600    17.3900 hc         1 MJI       0.030700
@<TRIPOS>BOND
     1     1     2 1   
     2     1     3 1   
     3     1    33 1   
     4     1    34 1   
     5     2    17 1   
     6     3     4 1   
     7     3     5 1   
     8     3    35 1   
     9     4    12 1   
    10     5     6 1   
    11     5    36 1   
    12     5    37 1   
    13     6     7 1   
    14     7     8 1   
    15     7    38 1   
    16     7    39 1   
    17     8     9 1   
    18     8    10 1   
    19     8    11 1   
    20    12    13 1   
    21    12    14 1   
    22    12    16 1   
    23    15    16 1   
    24    15    40 1   
    25    15    41 1   
    26    15    42 1   
    27    17    18 1   
    28    17    43 1   
    29    17    44 1   
    30    18    19 1   
    31    18    45 1   
    32    18    46 1   
    33    19    20 1   
    34    19    47 1   
    35    19    48 1   
    36    20    21 1   
    37    20    49 1   
    38    20    50 1   
    39    21    22 1   
    40    21    51 1   
    41    21    52 1   
    42    22    23 1   
    43    22    53 1   
    44    22    54 1   
    45    23    24 1   
    46    23    55 1   
    47    23    56 1   
    48    24    25 1   
    49    24    57 1   
    50    24    58 1   
    51    25    26 1   
    52    25    59 1   
    53    25    60 1   
    54    26    27 1   
    55    26    61 1   
    56    26    62 1   
    57    27    28 1   
    58    27    63 1   
    59    27    64 1   
    60    28    29 1   
    61    28    65 1   
    62    28    66 1   
    63    29    30 1   
    64    29    67 1   
    65    29    68 1   
    66    30    31 1   
    67    30    69 1   
    68    30    70 1   
    69    31    32 1   
    70    31    71 1   
    71    31    72 1   
    72    32    73 1   
    73    32    74 1   
    74    32    75 1   
@<TRIPOS>SUBSTRUCTURE
     1 MJI         1 TEMP              0 ****  ****    0 ROOT
