@<TRIPOS>MOLECULE
MJJ
   47    47     1     0     0
SMALL
No Charge or Current Charge


@<TRIPOS>ATOM
      1 O4           4.2960    -0.8440     0.0170 oh         1 MJJ      -0.669000
      2 C4           3.1030    -0.0790     0.2390 c6         1 MJJ       0.157300
      3 C5           1.8400    -0.8870    -0.1830 c6         1 MJJ       0.073700
      4 N5           1.7570    -2.1530     0.5850 ns         1 MJJ      -0.492900
      5 C10          1.3980    -3.3820     0.0840 c          1 MJJ       0.606100
      6 O10          1.0900    -3.5560    -1.0860 o          1 MJJ      -0.608100
      7 C11          1.4120    -4.5140     1.1040 c3         1 MJJ      -0.182100
      8 C3           3.1830     1.2370    -0.5610 c6         1 MJJ      -0.148400
      9 C2           1.9060     2.1100    -0.3430 c6         1 MJJ       0.258000
     10 O2           1.8920     3.2110    -1.3070 os         1 MJJ      -0.410000
     11 CM2          1.9090     2.9330    -2.7230 c3         1 MJJ       0.145900
     12 C1           1.9240     2.7170     1.1640 c          1 MJJ       0.722000
     13 O1           1.0990     2.2840     1.9620 o          1 MJJ      -0.695000
     14 O3           2.2340     3.9020     1.2720 o          1 MJJ      -0.695000
     15 O6           0.7320     1.2920    -0.6660 os         1 MJJ      -0.503000
     16 C6           0.5790     0.0100     0.0270 c6         1 MJJ       0.160300
     17 C7          -0.7350    -0.6150    -0.5570 c3         1 MJJ       0.153300
     18 O7          -0.7840    -0.3290    -1.9670 oh         1 MJJ      -0.723000
     19 C8          -2.0300    -0.0810     0.1270 c3         1 MJJ       0.131300
     20 O8          -2.0320    -0.4220     1.5290 oh         1 MJJ      -0.619000
     21 C9          -3.3280    -0.6330    -0.5190 c3         1 MJJ       0.130600
     22 O9          -4.4460    -0.2400     0.3060 os         1 MJJ      -0.427100
     23 CA9         -5.7020    -0.6140    -0.0930 c          1 MJJ       0.592100
     24 OA9         -5.9480    -1.2620    -1.1020 o          1 MJJ      -0.511000
     25 CM9         -6.7670    -0.1240     0.8780 c3         1 MJJ      -0.156100
     26 H1           5.0500    -0.2980     0.3320 ho         1 MJJ       0.438000
     27 H2           3.0170     0.1640     1.3100 h1         1 MJJ       0.056700
     28 H3           1.9250    -1.1250    -1.2530 h1         1 MJJ       0.100700
     29 H4           2.0250    -2.1350     1.5610 hn         1 MJJ       0.306500
     30 H5           0.7720    -4.2410     1.9500 hc         1 MJJ       0.051033
     31 H6           1.1210    -5.4780     0.6710 hc         1 MJJ       0.051033
     32 H7           2.4040    -4.5630     1.5690 hc         1 MJJ       0.051033
     33 H8           4.0710     1.8090    -0.2610 hc         1 MJJ       0.053700
     34 H9           3.3170     0.9820    -1.6190 hc         1 MJJ       0.053700
     35 H10          2.8830     2.5430    -3.0420 h1         1 MJJ       0.012700
     36 H11          1.1290     2.2120    -2.9990 h1         1 MJJ       0.012700
     37 H12          1.7260     3.8560    -3.2860 h1         1 MJJ       0.012700
     38 H14          0.4390     0.1670     1.1030 h1         1 MJJ       0.082700
     39 H15         -0.7140    -1.7000    -0.3950 h1         1 MJJ       0.059700
     40 H16         -0.2340     0.4920    -2.0370 ho         1 MJJ       0.522000
     41 H17         -2.0440     1.0130     0.0100 h1         1 MJJ       0.123700
     42 H18         -2.9670    -0.3370     1.8200 ho         1 MJJ       0.417000
     43 H19         -3.4330    -0.2280    -1.5350 h1         1 MJJ       0.052700
     44 H20         -3.2640    -1.7270    -0.5910 h1         1 MJJ       0.052700
     45 H21         -6.6690     0.9610     0.9930 hc         1 MJJ       0.065033
     46 H22         -7.7800    -0.4130     0.5750 hc         1 MJJ       0.065033
     47 H23         -6.5230    -0.4870     1.8830 hc         1 MJJ       0.065033
@<TRIPOS>BOND
     1     1     2 1   
     2     1    26 1   
     3     2     3 1   
     4     2     8 1   
     5     2    27 1   
     6     3     4 1   
     7     3    16 1   
     8     3    28 1   
     9     4     5 1   
    10     4    29 1   
    11     5     6 2   
    12     5     7 1   
    13     7    30 1   
    14     7    31 1   
    15     7    32 1   
    16     8     9 1   
    17     8    33 1   
    18     8    34 1   
    19     9    10 1   
    20     9    12 1   
    21     9    15 1   
    22    10    11 1   
    23    11    35 1   
    24    11    36 1   
    25    11    37 1   
    26    12    13 1   
    27    12    14 1   
    28    15    16 1   
    29    16    17 1   
    30    16    38 1   
    31    17    18 1   
    32    17    19 1   
    33    17    39 1   
    34    18    40 1   
    35    19    20 1   
    36    19    21 1   
    37    19    41 1   
    38    20    42 1   
    39    21    22 1   
    40    21    43 1   
    41    21    44 1   
    42    22    23 1   
    43    23    24 2   
    44    23    25 1   
    45    25    45 1   
    46    25    46 1   
    47    25    47 1   
@<TRIPOS>SUBSTRUCTURE
     1 MJJ         1 TEMP              0 ****  ****    0 ROOT
