@<TRIPOS>MOLECULE
MJJ
   47    47     1     0     0
SMALL
bcc


@<TRIPOS>ATOM
      1 O4           4.1210    -0.8720    -0.2940 oh         1 MJJ      -0.606800
      2 C4           3.0050    -0.0990     0.0810 c6         1 MJJ       0.134100
      3 C5           1.7550    -0.9280    -0.1920 c6         1 MJJ       0.073700
      4 N5           1.7340    -2.1180     0.6240 ns         1 MJJ      -0.559900
      5 C10          1.9180    -3.3690     0.1620 c          1 MJJ       0.673100
      6 O10          2.0440    -3.6400    -1.0240 o          1 MJJ      -0.608100
      7 C11          1.9680    -4.4360     1.2290 c3         1 MJJ      -0.182100
      8 C3           2.9250     1.2090    -0.6920 c6         1 MJJ      -0.148400
      9 C2           1.6520     1.9700    -0.3350 c6         1 MJJ       0.211600
     10 O2           1.4600     3.1300    -1.0820 os         1 MJJ      -0.363600
     11 CM2          1.5480     3.0350    -2.4910 c3         1 MJJ       0.122700
     12 C1           1.6500     2.4980     1.1410 c          1 MJJ       0.932600
     13 O1           0.5460     2.5620     1.7020 o          1 MJJ      -0.800300
     14 O3           2.7570     2.8470     1.5900 o          1 MJJ      -0.800300
     15 O6           0.5390     1.1410    -0.5940 os         1 MJJ      -0.456600
     16 C6           0.5000    -0.0890     0.0890 c6         1 MJJ       0.137100
     17 C7          -0.7780    -0.7830    -0.3860 c3         1 MJJ       0.130100
     18 O7          -0.8270    -0.8460    -1.7900 oh         1 MJJ      -0.600800
     19 C8          -2.0260    -0.1090     0.2160 c3         1 MJJ       0.108100
     20 O8          -2.0400    -0.2560     1.6150 oh         1 MJJ      -0.556800
     21 C9          -3.2940    -0.6570    -0.4170 c3         1 MJJ       0.107400
     22 O9          -4.3920     0.0350     0.1820 os         1 MJJ      -0.403900
     23 CA9         -5.6200    -0.3080    -0.1810 c          1 MJJ       0.641100
     24 OA9         -5.8580    -1.1750    -0.9870 o          1 MJJ      -0.560000
     25 CM9         -6.6710     0.5000     0.5210 c3         1 MJJ      -0.156100
     26 H1           4.9150    -0.3740    -0.0740 ho         1 MJJ       0.399000
     27 H2           3.0430     0.1250     1.1580 h1         1 MJJ       0.056700
     28 H3           1.7580    -1.2390    -1.2380 h1         1 MJJ       0.100700
     29 H4           1.6860    -1.9870     1.6220 hn         1 MJJ       0.306500
     30 H5           1.5760    -4.1070     2.1900 hc         1 MJJ       0.051033
     31 H6           1.4080    -5.3100     0.9020 hc         1 MJJ       0.051033
     32 H7           3.0030    -4.7480     1.3750 hc         1 MJJ       0.051033
     33 H8           3.7960     1.8300    -0.4760 hc         1 MJJ       0.053700
     34 H9           2.9430     0.9710    -1.7600 hc         1 MJJ       0.053700
     35 H10          2.5790     2.9190    -2.8380 h1         1 MJJ       0.012700
     36 H11          0.9510     2.2180    -2.9010 h1         1 MJJ       0.012700
     37 H12          1.1630     3.9720    -2.8920 h1         1 MJJ       0.012700
     38 H14          0.4260     0.0760     1.1720 h1         1 MJJ       0.082700
     39 H15         -0.7600    -1.8210    -0.0360 h1         1 MJJ       0.059700
     40 H16         -0.6480     0.0380    -2.1310 ho         1 MJJ       0.423000
     41 H17         -1.9760     0.9680     0.0300 h1         1 MJJ       0.123700
     42 H18         -2.0980    -1.1950     1.8290 ho         1 MJJ       0.378000
     43 H19         -3.2950    -0.4950    -1.4950 h1         1 MJJ       0.052700
     44 H20         -3.3840    -1.7340    -0.2370 h1         1 MJJ       0.052700
     45 H21         -6.2560     1.2230     1.2170 hc         1 MJJ       0.065033
     46 H22         -7.2740     1.0260    -0.2190 hc         1 MJJ       0.065033
     47 H23         -7.3400    -0.1700     1.0610 hc         1 MJJ       0.065033
@<TRIPOS>BOND
     1     1     2 1   
     2     1    26 1   
     3     2     3 1   
     4     2     8 1   
     5     2    27 1   
     6     3     4 1   
     7     3    16 1   
     8     3    28 1   
     9     4     5 1   
    10     4    29 1   
    11     5     6 2   
    12     5     7 1   
    13     7    30 1   
    14     7    31 1   
    15     7    32 1   
    16     8     9 1   
    17     8    33 1   
    18     8    34 1   
    19     9    10 1   
    20     9    12 1   
    21     9    15 1   
    22    10    11 1   
    23    11    35 1   
    24    11    36 1   
    25    11    37 1   
    26    12    13 1   
    27    12    14 1   
    28    15    16 1   
    29    16    17 1   
    30    16    38 1   
    31    17    18 1   
    32    17    19 1   
    33    17    39 1   
    34    18    40 1   
    35    19    20 1   
    36    19    21 1   
    37    19    41 1   
    38    20    42 1   
    39    21    22 1   
    40    21    43 1   
    41    21    44 1   
    42    22    23 1   
    43    23    24 2   
    44    23    25 1   
    45    25    45 1   
    46    25    46 1   
    47    25    47 1   
@<TRIPOS>SUBSTRUCTURE
     1 MJJ         1 TEMP              0 ****  ****    0 ROOT
