@<TRIPOS>MOLECULE
MJK
   48    50     1     0     0
SMALL
No Charge or Current Charge


@<TRIPOS>ATOM
      1 C4          58.1030   -15.3150   162.9530 c3         1 MJK       0.182300
      2 C7          55.7070   -15.5890   165.8830 cc         1 MJK      -0.094000
      3 C6          56.7470   -16.0410   165.0320 cc         1 MJK      -0.130000
      4 C9          62.4200   -16.6100   163.2520 c5         1 MJK      -0.085400
      5 C13         63.2140   -19.6840   167.5860 ca         1 MJK      -0.082300
      6 C8          55.2270   -14.3580   165.5270 cd         1 MJK      -0.185900
      7 C18         64.5090   -20.2070   167.4050 ca         1 MJK      -0.107000
      8 C16         65.4700   -18.0090   167.8220 ca         1 MJK      -0.112000
      9 C1          60.9360   -19.1600   165.5480 c          1 MJK       0.621100
     10 C2          61.2790   -16.9960   164.2430 c5         1 MJK       0.029700
     11 C3          59.9240   -16.9720   163.4630 c          1 MJK       0.600100
     12 C5          57.0640   -15.1570   164.0280 cd         1 MJK      -0.230300
     13 C10         63.6540   -17.2780   163.9000 c5         1 MJK      -0.096400
     14 C11         63.0990   -18.6770   164.2590 c5         1 MJK       0.109000
     15 C12         61.9940   -20.5810   167.4210 c3         1 MJK      -0.070100
     16 C14         63.0560   -18.3180   167.8960 ca         1 MJK      -0.107000
     17 C15         64.1810   -17.4830   168.0100 ca         1 MJK      -0.112000
     18 C17         65.6330   -19.3710   167.5210 ca         1 MJK      -0.112000
     19 N           60.4540   -21.7090   165.8130 n8         1 MJK      -0.980200
     20 C           61.4550   -20.5960   165.9660 c3         1 MJK       0.097500
     21 O           59.3860   -17.9030   162.8750 o          1 MJK      -0.570100
     22 N1          61.7300   -18.3410   164.7070 n          1 MJK      -0.388800
     23 N2          59.3890   -15.7030   163.5240 ns         1 MJK      -0.513900
     24 O1          59.8440   -18.7550   165.9420 o          1 MJK      -0.622100
     25 S           56.0510   -13.6970   164.1020 ss         1 MJK       0.313000
     26 Br          53.8550   -13.3720   166.3640 br         1 MJK      -0.050100
     27 H1          58.2300   -14.3650   162.4170 h1         1 MJK       0.058200
     28 H2          57.7680   -16.0680   162.2270 h1         1 MJK       0.058200
     29 H3          55.3420   -16.1720   166.7240 ha         1 MJK       0.141000
     30 H4          57.2360   -17.0010   165.1760 ha         1 MJK       0.132000
     31 H5          62.5320   -15.5250   163.1430 hc         1 MJK       0.061200
     32 H6          62.2410   -17.0190   162.2500 hc         1 MJK       0.061200
     33 H7          64.6450   -21.2590   167.1630 ha         1 MJK       0.116000
     34 H8          66.3400   -17.3620   167.9100 ha         1 MJK       0.113000
     35 H9          61.2290   -16.3020   165.0930 h1         1 MJK       0.061700
     36 H10         64.5170   -17.3290   163.2260 hc         1 MJK       0.057700
     37 H11         63.9720   -16.7380   164.8010 hc         1 MJK       0.057700
     38 H12         63.0680   -19.3370   163.3820 h1         1 MJK       0.057200
     39 H13         63.7070   -19.1550   165.0350 h1         1 MJK       0.057200
     40 H14         61.1950   -20.2600   168.1010 hc         1 MJK       0.057200
     41 H15         62.2540   -21.6040   167.7220 hc         1 MJK       0.057200
     42 H16         62.0620   -17.8990   168.0380 ha         1 MJK       0.116000
     43 H17         64.0530   -16.4280   168.2430 ha         1 MJK       0.113000
     44 H18         66.6310   -19.7790   167.3760 ha         1 MJK       0.113000
     45 H19         60.8160   -22.5630   166.2550 hn         1 MJK       0.407500
     46 H20         59.6180   -21.4830   166.3670 hn         1 MJK       0.407500
     47 H22         62.2940   -20.8540   165.3080 h1         1 MJK       0.070700
     48 H23         59.9110   -15.0060   164.0410 hn         1 MJK       0.317500
@<TRIPOS>BOND
     1     1    12 1   
     2     1    23 1   
     3     1    27 1   
     4     1    28 1   
     5     2     3 1   
     6     2     6 2   
     7     2    29 1   
     8     3    12 2   
     9     3    30 1   
    10     4    10 1   
    11     4    13 1   
    12     4    31 1   
    13     4    32 1   
    14     5     7 ar  
    15     5    15 1   
    16     5    16 ar  
    17     6    25 1   
    18     6    26 1   
    19     7    18 ar  
    20     7    33 1   
    21     8    17 ar  
    22     8    18 ar  
    23     8    34 1   
    24     9    20 1   
    25     9    22 1   
    26     9    24 2   
    27    10    11 1   
    28    10    22 1   
    29    10    35 1   
    30    11    21 2   
    31    11    23 1   
    32    12    25 1   
    33    13    14 1   
    34    13    36 1   
    35    13    37 1   
    36    14    22 1   
    37    14    38 1   
    38    14    39 1   
    39    15    20 1   
    40    15    40 1   
    41    15    41 1   
    42    16    17 ar  
    43    16    42 1   
    44    17    43 1   
    45    18    44 1   
    46    19    20 1   
    47    19    45 1   
    48    19    46 1   
    49    20    47 1   
    50    23    48 1   
@<TRIPOS>SUBSTRUCTURE
     1 MJK         1 TEMP              0 ****  ****    0 ROOT
