@<TRIPOS>MOLECULE
MJK
   48    50     1     0     0
SMALL
abcg2


@<TRIPOS>ATOM
      1 C4          58.3850   -14.9740   163.4900 c3         1 MJK       0.182300
      2 C7          55.0560   -16.5080   164.4170 cc         1 MJK      -0.094000
      3 C6          55.9870   -15.9050   163.5270 cc         1 MJK      -0.130000
      4 C9          62.6020   -16.7610   163.2690 c5         1 MJK      -0.085400
      5 C13         63.2770   -19.2560   167.6820 ca         1 MJK      -0.082300
      6 C8          55.6010   -16.7010   165.6480 cd         1 MJK      -0.185900
      7 C18         64.3640   -20.0870   167.4180 ca         1 MJK      -0.107000
      8 C16         65.8220   -18.1830   167.2160 ca         1 MJK      -0.112000
      9 C1          60.9330   -18.6010   165.9180 c          1 MJK       0.621100
     10 C2          61.5430   -16.8620   164.3770 c5         1 MJK       0.029700
     11 C3          60.1470   -16.6320   163.8170 c          1 MJK       0.600100
     12 C5          57.1990   -15.6600   164.0970 cd         1 MJK      -0.230300
     13 C10         63.6280   -17.8190   163.6590 c5         1 MJK      -0.096400
     14 C11         62.7650   -18.9410   164.2140 c5         1 MJK       0.109000
     15 C12         61.9010   -19.8360   167.8550 c3         1 MJK      -0.070100
     16 C14         63.4870   -17.8790   167.7160 ca         1 MJK      -0.107000
     17 C15         64.7480   -17.3450   167.4850 ca         1 MJK      -0.112000
     18 C17         65.6270   -19.5580   167.1860 ca         1 MJK      -0.112000
     19 N           59.8260   -20.5970   166.6580 n8         1 MJK      -0.980200
     20 C           61.1340   -19.9850   166.5220 c3         1 MJK       0.097500
     21 O           59.5710   -17.4730   163.1500 o          1 MJK      -0.570100
     22 N1          61.6910   -18.2150   164.8830 n          1 MJK      -0.388800
     23 N2          59.6440   -15.4070   164.0430 ns         1 MJK      -0.513900
     24 O1          60.1020   -17.8440   166.4080 o          1 MJK      -0.622100
     25 S           57.2340   -16.1730   165.7410 ss         1 MJK       0.313000
     26 BR          54.7870   -17.4860   167.1260 br         1 MJK      -0.050100
     27 H1          58.3160   -13.8990   163.6600 h1         1 MJK       0.058200
     28 H2          58.3620   -15.1270   162.4090 h1         1 MJK       0.058200
     29 H3          54.0480   -16.7890   164.1490 ha         1 MJK       0.141000
     30 H4          55.7600   -15.6640   162.4980 ha         1 MJK       0.132000
     31 H5          63.0160   -15.7560   163.2010 hc         1 MJK       0.061200
     32 H6          62.1650   -17.0100   162.3000 hc         1 MJK       0.061200
     33 H7          64.2210   -21.1620   167.3930 ha         1 MJK       0.116000
     34 H8          66.8060   -17.7690   167.0360 ha         1 MJK       0.113000
     35 H9          61.7520   -16.1420   165.1750 h1         1 MJK       0.061700
     36 H10         64.2400   -18.1450   162.8190 hc         1 MJK       0.057700
     37 H11         64.2910   -17.4440   164.4410 hc         1 MJK       0.057700
     38 H12         62.3650   -19.5670   163.4110 h1         1 MJK       0.057200
     39 H13         63.3150   -19.5760   164.9030 h1         1 MJK       0.057200
     40 H14         61.3070   -19.2180   168.5310 hc         1 MJK       0.057200
     41 H15         61.9720   -20.8290   168.3060 hc         1 MJK       0.057200
     42 H16         62.6560   -17.2150   167.9260 ha         1 MJK       0.116000
     43 H17         64.8910   -16.2730   167.5170 ha         1 MJK       0.113000
     44 H18         66.4590   -20.2200   166.9840 ha         1 MJK       0.113000
     45 H19         59.9210   -21.4900   167.1270 hn         1 MJK       0.407500
     46 H20         59.2440   -20.0200   167.2530 hn         1 MJK       0.407500
     47 H22         61.7230   -20.6210   165.8570 h1         1 MJK       0.070700
     48 H23         60.1540   -14.7610   164.6220 hn         1 MJK       0.317500
@<TRIPOS>BOND
     1     1    12 1   
     2     1    23 1   
     3     1    27 1   
     4     1    28 1   
     5     2     3 1   
     6     2     6 2   
     7     2    29 1   
     8     3    12 2   
     9     3    30 1   
    10     4    10 1   
    11     4    13 1   
    12     4    31 1   
    13     4    32 1   
    14     5     7 ar  
    15     5    15 1   
    16     5    16 ar  
    17     6    25 1   
    18     6    26 1   
    19     7    18 ar  
    20     7    33 1   
    21     8    17 ar  
    22     8    18 ar  
    23     8    34 1   
    24     9    20 1   
    25     9    22 1   
    26     9    24 2   
    27    10    11 1   
    28    10    22 1   
    29    10    35 1   
    30    11    21 2   
    31    11    23 1   
    32    12    25 1   
    33    13    14 1   
    34    13    36 1   
    35    13    37 1   
    36    14    22 1   
    37    14    38 1   
    38    14    39 1   
    39    15    20 1   
    40    15    40 1   
    41    15    41 1   
    42    16    17 ar  
    43    16    42 1   
    44    17    43 1   
    45    18    44 1   
    46    19    20 1   
    47    19    45 1   
    48    19    46 1   
    49    20    47 1   
    50    23    48 1   
@<TRIPOS>SUBSTRUCTURE
     1 MJK         1 TEMP              0 ****  ****    0 ROOT
