@<TRIPOS>MOLECULE
MJL
   68    70     1     0     0
SMALL
No Charge or Current Charge


@<TRIPOS>ATOM
      1 N1         -15.6490    74.4370     0.1070 n          1 MJL      -0.309000
      2 N3         -15.9930    73.8190    -2.1340 ns         1 MJL      -0.478500
      3 C4         -14.7520    74.1630    -2.5580 c          1 MJL       0.590200
      4 C5         -13.9070    74.7100    -1.5050 cc         1 MJL      -0.394200
      5 C6         -14.3520    74.8460    -0.2090 cd         1 MJL       0.032600
      6 C2         -16.5100    73.9210    -0.8790 c          1 MJL       0.623000
      7 O2         -17.6610    73.5800    -0.6590 o          1 MJL      -0.597000
      8 O4         -14.3990    74.0230    -3.7160 o          1 MJL      -0.583000
      9 PA         -12.6840    77.7460     3.1850 p5         1 MJL       1.480800
     10 PB         -10.1200    77.3570     3.3720 p5         1 MJL       1.513800
     11 O'P         -7.6200    75.8520     8.8830 o          1 MJL      -0.729500
     12 O'Q         -8.4680    77.6850     9.4970 o          1 MJL      -0.729500
     13 C1          -9.2030    78.6110     5.4830 c6         1 MJL       0.455300
     14 O1A        -12.6840    77.1320     1.8260 o          1 MJL      -0.851500
     15 O1B         -9.8790    78.5660     2.5370 o          1 MJL      -0.858500
     16 C1C        -16.1610    74.5370     1.4990 c5         1 MJL       0.334700
     17 C12         -8.0360    79.6050     5.1350 c6         1 MJL       0.031700
     18 N2          -8.1460    80.1960     3.7790 ns         1 MJL      -0.475900
     19 O2A        -12.8570    79.2290     3.1620 o          1 MJL      -0.851500
     20 O2B         -9.8310    76.0840     2.6500 o          1 MJL      -0.858500
     21 C2C        -15.5840    73.3400     2.3230 c5         1 MJL       0.123300
     22 O2C        -16.2290    72.0770     2.1010 oh         1 MJL      -0.699000
     23 C3          -6.6680    78.8900     5.3710 c6         1 MJL       0.085700
     24 N4          -5.5630    79.8240     5.0610 ns         1 MJL      -0.461900
     25 O3A        -11.4990    77.3100     4.1210 os         1 MJL      -0.728800
     26 O3B         -9.2140    77.4140     4.6950 os         1 MJL      -0.633400
     27 C3C        -15.9290    73.8760     3.7400 c5         1 MJL       0.091300
     28 O3C        -17.3360    73.6990     4.0100 oh         1 MJL      -0.720000
     29 C9          -6.5960    78.3750     6.8500 c6         1 MJL       0.161300
     30 O6          -5.3860    77.6330     7.0800 oh         1 MJL      -0.787000
     31 C4C        -15.5200    75.3900     3.5930 c5         1 MJL       0.121300
     32 O4C        -15.6440    75.7000     2.1750 os         1 MJL      -0.429000
     33 C10         -7.8390    77.5060     7.2020 c6         1 MJL      -0.000700
     34 O5          -9.0700    78.2270     6.8670 os         1 MJL      -0.420000
     35 C5C        -14.0710    75.6800     4.0840 c3         1 MJL       0.207600
     36 O5C        -13.8470    77.1000     4.0940 os         1 MJL      -0.584400
     37 C11         -7.7800    77.0540     8.7010 c          1 MJL       0.728000
     38 C7          -7.6430    81.4020     3.3610 c          1 MJL       0.599100
     39 O7          -6.9740    82.1200     4.0910 o          1 MJL      -0.707100
     40 C8          -7.9710    81.7690     1.9200 c3         1 MJL      -0.174100
     41 O43         -3.8300    78.3690     5.0880 o          1 MJL      -0.630100
     42 C41         -4.2460    79.4990     4.8750 c          1 MJL       0.603100
     43 C42         -3.3510    80.6440     4.4190 c3         1 MJL      -0.177100
     44 H1         -16.6120    73.4440    -2.8350 hn         1 MJL       0.311500
     45 H2         -12.9100    75.0080    -1.8100 ha         1 MJL       0.251000
     46 H3         -13.7710    75.2590     0.6160 h4         1 MJL       0.285000
     47 H5         -10.1640    79.1400     5.3690 h2         1 MJL       0.080700
     48 H6         -17.2580    74.5470     1.4950 h2         1 MJL       0.099700
     49 H7          -8.1080    80.4390     5.8490 h1         1 MJL       0.055700
     50 H8          -8.7160    79.6950     3.0910 hn         1 MJL       0.389500
     51 H11        -14.4970    73.2550     2.1830 h1         1 MJL       0.076700
     52 H12        -17.0270    72.1240     2.6840 ho         1 MJL       0.500000
     53 H13         -6.6030    78.0290     4.6870 h1         1 MJL       0.113700
     54 H14         -5.8210    80.7860     4.8490 hn         1 MJL       0.300500
     55 H15        -15.3270    73.3700     4.5100 h1         1 MJL       0.067700
     56 H16        -17.5040    73.9950     4.9370 ho         1 MJL       0.500000
     57 H17         -6.6040    79.2530     7.5120 h1         1 MJL       0.003700
     58 H18         -4.7630    77.8780     6.3320 ho         1 MJL       0.564000
     59 H19        -16.2060    76.0340     4.1600 h1         1 MJL       0.074700
     60 H20         -7.8030    76.5860     6.6010 h1         1 MJL       0.065700
     61 H21        -13.3530    75.1530     3.4420 h1         1 MJL       0.045700
     62 H22        -13.9570    75.2830     5.1010 h1         1 MJL       0.045700
     63 H23         -7.5470    82.7340     1.6210 hc         1 MJL       0.048700
     64 H24         -7.6360    80.9590     1.2610 hc         1 MJL       0.048700
     65 H25         -9.0580    81.7430     1.7830 hc         1 MJL       0.048700
     66 H26         -2.3040    80.3430     4.2990 hc         1 MJL       0.037367
     67 H27         -3.7590    81.0690     3.4940 hc         1 MJL       0.037367
     68 H28         -3.4530    81.4800     5.1210 hc         1 MJL       0.037367
@<TRIPOS>BOND
     1     1     5 1   
     2     1     6 1   
     3     1    16 1   
     4     2     3 1   
     5     2     6 1   
     6     2    44 1   
     7     3     4 1   
     8     3     8 2   
     9     4     5 2   
    10     4    45 1   
    11     5    46 1   
    12     6     7 2   
    13     9    14 1   
    14     9    19 1   
    15     9    25 1   
    16     9    36 1   
    17    10    15 1   
    18    10    20 1   
    19    10    25 1   
    20    10    26 1   
    21    11    37 1   
    22    12    37 1   
    23    13    17 1   
    24    13    26 1   
    25    13    34 1   
    26    13    47 1   
    27    16    21 1   
    28    16    32 1   
    29    16    48 1   
    30    17    18 1   
    31    17    23 1   
    32    17    49 1   
    33    18    38 1   
    34    18    50 1   
    35    21    22 1   
    36    21    27 1   
    37    21    51 1   
    38    22    52 1   
    39    23    24 1   
    40    23    29 1   
    41    23    53 1   
    42    24    42 1   
    43    24    54 1   
    44    27    28 1   
    45    27    31 1   
    46    27    55 1   
    47    28    56 1   
    48    29    30 1   
    49    29    33 1   
    50    29    57 1   
    51    30    58 1   
    52    31    32 1   
    53    31    35 1   
    54    31    59 1   
    55    33    34 1   
    56    33    37 1   
    57    33    60 1   
    58    35    36 1   
    59    35    61 1   
    60    35    62 1   
    61    38    39 2   
    62    38    40 1   
    63    40    63 1   
    64    40    64 1   
    65    40    65 1   
    66    41    42 2   
    67    42    43 1   
    68    43    66 1   
    69    43    67 1   
    70    43    68 1   
@<TRIPOS>SUBSTRUCTURE
     1 MJL         1 TEMP              0 ****  ****    0 ROOT
