@<TRIPOS>MOLECULE
MJL
   68    70     1     0     0
SMALL
abcg2


@<TRIPOS>ATOM
      1 N1         -16.0990    74.6220     0.4920 n          1 MJL      -0.309000
      2 N3         -17.1310    74.8690    -1.5650 ns         1 MJL      -0.478500
      3 C4         -16.1220    75.6410    -2.1250 c          1 MJL       0.590200
      4 C5         -15.0270    75.8870    -1.2210 cc         1 MJL      -0.394200
      5 C6         -15.0630    75.3820     0.0210 cd         1 MJL       0.032600
      6 C2         -17.1930    74.3390    -0.3020 c          1 MJL       0.623000
      7 O2         -18.1390    73.6760     0.0690 o          1 MJL      -0.597000
      8 O4         -16.2130    76.0410    -3.2700 o          1 MJL      -0.583000
      9 PA         -12.6930    77.7110     2.3770 p5         1 MJL       1.480800
     10 PB          -9.8700    77.1620     3.1020 p5         1 MJL       1.513800
     11 O'P         -8.3350    77.7710     9.5090 o          1 MJL      -0.729500
     12 O'Q        -10.3620    78.4740     8.9010 o          1 MJL      -0.729500
     13 C1          -9.2690    78.9420     5.0560 c6         1 MJL       0.455300
     14 O1A        -12.3590    76.9130     1.1520 o          1 MJL      -0.851500
     15 O1B         -9.1950    77.9130     1.9870 o          1 MJL      -0.858500
     16 C1C        -16.0750    74.1430     1.8690 c5         1 MJL       0.334700
     17 C12         -7.9310    79.6650     4.8780 c6         1 MJL       0.031700
     18 N2          -7.6110    79.8000     3.4800 ns         1 MJL      -0.475900
     19 O2A        -13.2660    79.0840     2.3050 o          1 MJL      -0.851500
     20 O2B         -9.8780    75.6720     3.1320 o          1 MJL      -0.858500
     21 C2C        -15.0020    73.0920     2.1450 c5         1 MJL       0.123300
     22 O2C        -15.4560    71.8420     1.7370 oh         1 MJL      -0.699000
     23 C3          -6.8400    78.9480     5.6820 c6         1 MJL       0.085700
     24 N4          -5.5800    79.6320     5.5540 ns         1 MJL      -0.461900
     25 O3A        -11.3680    77.7710     3.3570 os         1 MJL      -0.728800
     26 O3B         -9.2060    77.6380     4.5340 os         1 MJL      -0.633400
     27 C3C        -14.7790    73.2930     3.6460 c5         1 MJL       0.091300
     28 O3C        -15.8200    72.6450     4.3260 oh         1 MJL      -0.720000
     29 C9          -7.2830    78.8580     7.1400 c6         1 MJL       0.161300
     30 O6          -6.3480    78.1220     7.8740 oh         1 MJL      -0.787000
     31 C4C        -14.8700    74.8190     3.7390 c5         1 MJL       0.121300
     32 O4C        -15.7910    75.2140     2.7200 os         1 MJL      -0.429000
     33 C10         -8.6730    78.2010     7.2190 c6         1 MJL      -0.000700
     34 O5          -9.6070    78.8770     6.4000 os         1 MJL      -0.420000
     35 C5C        -13.5160    75.4800     3.5400 c3         1 MJL       0.207600
     36 O5C        -13.7020    76.8620     3.3520 os         1 MJL      -0.584400
     37 C11         -9.1930    78.1600     8.6710 c          1 MJL       0.728000
     38 C7          -7.0740    80.9130     2.9510 c          1 MJL       0.599100
     39 O7          -6.7400    81.8910     3.6100 o          1 MJL      -0.707100
     40 C8          -6.8880    80.8740     1.4520 c3         1 MJL      -0.174100
     41 O43         -4.4390    77.9840     4.5020 o          1 MJL      -0.630100
     42 C41         -4.4970    79.1260     4.9360 c          1 MJL       0.603100
     43 C42         -3.3370    80.0810     4.7990 c3         1 MJL      -0.177100
     44 H1         -17.9280    74.6650    -2.1550 hn         1 MJL       0.311500
     45 H2         -14.1880    76.4860    -1.5420 ha         1 MJL       0.251000
     46 H3         -14.2500    75.5820     0.7060 h4         1 MJL       0.285000
     47 H5         -10.0600    79.5270     4.5750 h2         1 MJL       0.080700
     48 H6         -17.0650    73.7270     2.0690 h2         1 MJL       0.099700
     49 H7          -8.0620    80.6690     5.2940 h1         1 MJL       0.055700
     50 H8          -7.9580    79.0800     2.8450 hn         1 MJL       0.389500
     51 H11        -14.0750    73.3710     1.6270 h1         1 MJL       0.076700
     52 H12        -14.7210    71.2210     1.7610 ho         1 MJL       0.500000
     53 H13         -6.7020    77.9380     5.2900 h1         1 MJL       0.113700
     54 H14         -5.5570    80.6010     5.8300 hn         1 MJL       0.300500
     55 H15        -13.7940    72.9310     3.9690 h1         1 MJL       0.067700
     56 H16        -15.7320    72.8300     5.2670 ho         1 MJL       0.500000
     57 H17         -7.3740    79.8910     7.5250 h1         1 MJL       0.003700
     58 H18         -6.8600    77.8580     8.6770 ho         1 MJL       0.564000
     59 H19        -15.2850    75.1310     4.7020 h1         1 MJL       0.074700
     60 H20         -8.5590    77.1570     6.8900 h1         1 MJL       0.065700
     61 H21        -12.9850    75.0340     2.6930 h1         1 MJL       0.045700
     62 H22        -12.9060    75.2870     4.4310 h1         1 MJL       0.045700
     63 H23         -7.3040    81.7790     1.0090 hc         1 MJL       0.048700
     64 H24         -5.8220    80.8610     1.2200 hc         1 MJL       0.048700
     65 H25         -7.3510    80.0100     0.9810 hc         1 MJL       0.048700
     66 H26         -2.4210    79.5980     5.1370 hc         1 MJL       0.037367
     67 H27         -3.2030    80.3280     3.7450 hc         1 MJL       0.037367
     68 H28         -3.4650    81.0110     5.3500 hc         1 MJL       0.037367
@<TRIPOS>BOND
     1     1     5 1   
     2     1     6 1   
     3     1    16 1   
     4     2     3 1   
     5     2     6 1   
     6     2    44 1   
     7     3     4 1   
     8     3     8 2   
     9     4     5 2   
    10     4    45 1   
    11     5    46 1   
    12     6     7 2   
    13     9    14 1   
    14     9    19 1   
    15     9    25 1   
    16     9    36 1   
    17    10    15 1   
    18    10    20 1   
    19    10    25 1   
    20    10    26 1   
    21    11    37 1   
    22    12    37 1   
    23    13    17 1   
    24    13    26 1   
    25    13    34 1   
    26    13    47 1   
    27    16    21 1   
    28    16    32 1   
    29    16    48 1   
    30    17    18 1   
    31    17    23 1   
    32    17    49 1   
    33    18    38 1   
    34    18    50 1   
    35    21    22 1   
    36    21    27 1   
    37    21    51 1   
    38    22    52 1   
    39    23    24 1   
    40    23    29 1   
    41    23    53 1   
    42    24    42 1   
    43    24    54 1   
    44    27    28 1   
    45    27    31 1   
    46    27    55 1   
    47    28    56 1   
    48    29    30 1   
    49    29    33 1   
    50    29    57 1   
    51    30    58 1   
    52    31    32 1   
    53    31    35 1   
    54    31    59 1   
    55    33    34 1   
    56    33    37 1   
    57    33    60 1   
    58    35    36 1   
    59    35    61 1   
    60    35    62 1   
    61    38    39 2   
    62    38    40 1   
    63    40    63 1   
    64    40    64 1   
    65    40    65 1   
    66    41    42 2   
    67    42    43 1   
    68    43    66 1   
    69    43    67 1   
    70    43    68 1   
@<TRIPOS>SUBSTRUCTURE
     1 MJL         1 TEMP              0 ****  ****    0 ROOT
