@<TRIPOS>MOLECULE
MJM
   46    49     1     0     0
SMALL
abcg2


@<TRIPOS>ATOM
      1 C1          -6.3140    -0.8800     0.9010 c6         1 MJM      -0.074400
      2 C2          -5.6500    -2.1340     0.3450 c6         1 MJM      -0.081400
      3 C3          -4.1380    -1.9750     0.2760 c6         1 MJM      -0.053400
      4 C4          -3.7470    -0.7410    -0.5720 c6         1 MJM      -0.276000
      5 C5          -4.4360     0.4620    -0.0160 c2         1 MJM       0.478300
      6 C6          -5.9220     0.3590     0.0880 c6         1 MJM      -0.127700
      7 C7          -2.2500    -0.6160    -0.6830 c          1 MJM       0.584300
      8 C8          -1.6480     0.6110    -0.1800 ce         1 MJM      -0.201400
      9 C9          -2.4460     1.5950     0.3100 cf         1 MJM       0.192400
     10 N10         -3.8370     1.5130     0.3940 nf         1 MJM      -0.601300
     11 C11         -1.9290     2.9000     0.8130 c3         1 MJM      -0.056900
     12 C12         -0.1740     0.7170    -0.2290 ca         1 MJM      -0.035800
     13 C13          0.5820     0.6870     0.9410 ca         1 MJM      -0.079000
     14 C14          1.9640     0.7880     0.9040 ca         1 MJM      -0.124500
     15 C15          2.6020     0.9130    -0.3220 ca         1 MJM       0.105100
     16 C16          1.8720     0.9340    -1.5000 ca         1 MJM      -0.124500
     17 C17          0.4900     0.8350    -1.4480 ca         1 MJM      -0.079000
     18 O18         -1.5890    -1.5200    -1.1650 o          1 MJM      -0.519100
     19 O19          3.9630     1.0700    -0.3860 os         1 MJM      -0.259200
     20 C20          4.7740     0.0240    -0.0550 ca         1 MJM       0.132100
     21 C21          6.0990     0.3380     0.2300 ca         1 MJM      -0.155500
     22 C22          6.9920    -0.6770     0.5360 ca         1 MJM      -0.081500
     23 C23          6.5740    -2.0020     0.5690 ca         1 MJM      -0.141000
     24 C24          5.2500    -2.3020     0.2830 ca         1 MJM      -0.081500
     25 C25          4.3430    -1.2970    -0.0310 ca         1 MJM      -0.155500
     26 H1          -7.4000    -0.9840     0.8970 hc         1 MJM       0.050200
     27 H2          -6.0140    -0.7370     1.9430 hc         1 MJM       0.050200
     28 H3          -5.8950    -2.9950     0.9700 hc         1 MJM       0.047700
     29 H4          -6.0410    -2.3470    -0.6550 hc         1 MJM       0.047700
     30 H5          -3.7310    -1.8580     1.2850 hc         1 MJM       0.058200
     31 H6          -3.6710    -2.8570    -0.1610 hc         1 MJM       0.058200
     32 H7          -6.3330     0.2650    -0.9230 hc         1 MJM       0.066700
     33 H8          -6.3250     1.2700     0.5290 hc         1 MJM       0.066700
     34 H10         -2.4790     3.7160     0.3420 hc         1 MJM       0.059367
     35 H11         -2.1090     2.9810     1.8880 hc         1 MJM       0.059367
     36 H12         -0.8670     3.0390     0.6320 hc         1 MJM       0.059367
     37 H13          0.0830     0.5890     1.8970 ha         1 MJM       0.118500
     38 H14          2.5390     0.7720     1.8210 ha         1 MJM       0.129000
     39 H15          2.3800     1.0340    -2.4510 ha         1 MJM       0.129000
     40 H16         -0.0770     0.8640    -2.3690 ha         1 MJM       0.118500
     41 H17          6.4240     1.3700     0.2080 ha         1 MJM       0.128000
     42 H18          8.0220    -0.4270     0.7560 ha         1 MJM       0.113000
     43 H19          7.2730    -2.7910     0.8110 ha         1 MJM       0.114000
     44 H20          4.9110    -3.3300     0.2990 ha         1 MJM       0.113000
     45 H21          3.3170    -1.5540    -0.2610 ha         1 MJM       0.128000
     46 H22         -4.1400    -0.9080    -1.5850 hc         1 MJM       0.098700
@<TRIPOS>BOND
     1     1     2 1   
     2     1     6 1   
     3     1    26 1   
     4     1    27 1   
     5     2     3 1   
     6     2    28 1   
     7     2    29 1   
     8     3     4 1   
     9     3    30 1   
    10     3    31 1   
    11     4     5 1   
    12     4     7 1   
    13     4    46 1   
    14     5     6 1   
    15     5    10 2   
    16     6    32 1   
    17     6    33 1   
    18     7     8 1   
    19     7    18 2   
    20     8     9 2   
    21     8    12 1   
    22     9    10 1   
    23     9    11 1   
    24    11    34 1   
    25    11    35 1   
    26    11    36 1   
    27    12    13 ar  
    28    12    17 ar  
    29    13    14 ar  
    30    13    37 1   
    31    14    15 ar  
    32    14    38 1   
    33    15    16 ar  
    34    15    19 1   
    35    16    17 ar  
    36    16    39 1   
    37    17    40 1   
    38    19    20 1   
    39    20    21 ar  
    40    20    25 ar  
    41    21    22 ar  
    42    21    41 1   
    43    22    23 ar  
    44    22    42 1   
    45    23    24 ar  
    46    23    43 1   
    47    24    25 ar  
    48    24    44 1   
    49    25    45 1   
@<TRIPOS>SUBSTRUCTURE
     1 MJM         1 TEMP              0 ****  ****    0 ROOT
