@<TRIPOS>MOLECULE
MJM
   46    49     1     0     0
SMALL
No Charge or Current Charge


@<TRIPOS>ATOM
      1 C1          -6.2770    -0.5760     0.9430 c6         1 MJM      -0.074400
      2 C2          -5.3870    -1.8150     1.2360 c6         1 MJM      -0.081400
      3 C3          -3.8830    -1.5280     0.9700 c6         1 MJM      -0.053400
      4 C4          -3.6840    -1.0310    -0.4920 c6         1 MJM      -0.276000
      5 C5          -4.4950     0.2350    -0.6320 c2         1 MJM       0.478300
      6 C6          -5.9870     0.0130    -0.4650 c6         1 MJM      -0.127700
      7 C7          -2.2310    -0.7390    -0.8360 c          1 MJM       0.584300
      8 C8          -1.7090     0.5700    -0.3640 ce         1 MJM      -0.201400
      9 C9          -2.6110     1.5580    -0.1050 cf         1 MJM       0.192400
     10 N10         -3.9940     1.4080    -0.3230 nf         1 MJM      -0.601300
     11 C11         -2.2250     2.9380     0.3980 c3         1 MJM      -0.056900
     12 C12         -0.2250     0.6970    -0.2910 ca         1 MJM      -0.035800
     13 C13          0.5100    -0.1260     0.5840 ca         1 MJM      -0.079000
     14 C14          1.9090    -0.0120     0.6550 ca         1 MJM      -0.124500
     15 C15          2.5820     0.9190    -0.1600 ca         1 MJM       0.105100
     16 C16          1.8510     1.7470    -1.0260 ca         1 MJM      -0.124500
     17 C17          0.4510     1.6330    -1.0970 ca         1 MJM      -0.079000
     18 O18         -1.5980    -1.4680    -1.5890 o          1 MJM      -0.519100
     19 O19          3.9510     1.0600    -0.1010 os         1 MJM      -0.259200
     20 C20          4.8070    -0.0080     0.0480 ca         1 MJM       0.132100
     21 C21          5.9570     0.1490     0.8390 ca         1 MJM      -0.155500
     22 C22          6.8560    -0.9210     0.9980 ca         1 MJM      -0.081500
     23 C23          6.6060    -2.1480     0.3570 ca         1 MJM      -0.141000
     24 C24          5.4620    -2.3040    -0.4460 ca         1 MJM      -0.081500
     25 C25          4.5640    -1.2340    -0.6040 ca         1 MJM      -0.155500
     26 H1          -7.3390    -0.8440     1.0290 hc         1 MJM       0.050200
     27 H2          -6.0880     0.1940     1.7040 hc         1 MJM       0.050200
     28 H3          -5.5270    -2.1350     2.2780 hc         1 MJM       0.047700
     29 H4          -5.7150    -2.6570     0.6100 hc         1 MJM       0.047700
     30 H5          -3.5110    -0.7830     1.6880 hc         1 MJM       0.058200
     31 H6          -3.2970    -2.4430     1.1390 hc         1 MJM       0.058200
     32 H7          -6.3420    -0.6740    -1.2450 hc         1 MJM       0.066700
     33 H8          -6.5330     0.9560    -0.6040 hc         1 MJM       0.066700
     34 H10         -2.4140     3.7000    -0.3660 hc         1 MJM       0.059367
     35 H11         -2.8080     3.2060     1.2860 hc         1 MJM       0.059367
     36 H12         -1.1690     3.0040     0.6800 hc         1 MJM       0.059367
     37 H13         -0.0040    -0.8480     1.2140 ha         1 MJM       0.118500
     38 H14          2.4660    -0.6430     1.3430 ha         1 MJM       0.129000
     39 H15          2.3690     2.4720    -1.6480 ha         1 MJM       0.129000
     40 H16         -0.1080     2.2700    -1.7780 ha         1 MJM       0.118500
     41 H17          6.1490     1.0980     1.3310 ha         1 MJM       0.128000
     42 H18          7.7440    -0.8000     1.6140 ha         1 MJM       0.113000
     43 H19          7.3010    -2.9750     0.4790 ha         1 MJM       0.114000
     44 H20          5.2740    -3.2520    -0.9460 ha         1 MJM       0.113000
     45 H21          3.6870    -1.3560    -1.2340 ha         1 MJM       0.128000
     46 H22         -4.0430    -1.7940    -1.1940 hc         1 MJM       0.098700
@<TRIPOS>BOND
     1     1     2 1   
     2     1     6 1   
     3     1    26 1   
     4     1    27 1   
     5     2     3 1   
     6     2    28 1   
     7     2    29 1   
     8     3     4 1   
     9     3    30 1   
    10     3    31 1   
    11     4     5 1   
    12     4     7 1   
    13     4    46 1   
    14     5     6 1   
    15     5    10 2   
    16     6    32 1   
    17     6    33 1   
    18     7     8 1   
    19     7    18 2   
    20     8     9 2   
    21     8    12 1   
    22     9    10 1   
    23     9    11 1   
    24    11    34 1   
    25    11    35 1   
    26    11    36 1   
    27    12    13 ar  
    28    12    17 ar  
    29    13    14 ar  
    30    13    37 1   
    31    14    15 ar  
    32    14    38 1   
    33    15    16 ar  
    34    15    19 1   
    35    16    17 ar  
    36    16    39 1   
    37    17    40 1   
    38    19    20 1   
    39    20    21 ar  
    40    20    25 ar  
    41    21    22 ar  
    42    21    41 1   
    43    22    23 ar  
    44    22    42 1   
    45    23    24 ar  
    46    23    43 1   
    47    24    25 ar  
    48    24    44 1   
    49    25    45 1   
@<TRIPOS>SUBSTRUCTURE
     1 MJM         1 TEMP              0 ****  ****    0 ROOT
