@<TRIPOS>MOLECULE
MJN
   77    81     1     0     0
SMALL
No Charge or Current Charge


@<TRIPOS>ATOM
      1 C13         -6.3130   -22.9900    31.7340 c3         1 MJN      -0.104100
      2 C15         -8.4870   -23.1680    30.4100 ca         1 MJN      -0.059000
      3 C17         -8.5500   -24.2310    28.2260 ca         1 MJN       0.101600
      4 C21         -7.3060   -25.5730    26.0870 cc         1 MJN      -0.298200
      5 C22         -6.5260   -25.2140    27.1720 cd         1 MJN       0.026600
      6 C24         -7.1730   -24.5090    28.3000 ca         1 MJN      -0.126800
      7 C26         -4.3980   -19.6140    31.1840 c6         1 MJN       0.099500
      8 C01         -5.4660   -12.3190    33.6600 c3         1 MJN       0.097300
      9 C03         -5.6960   -13.6910    31.5640 c          1 MJN       0.578100
     10 C05         -5.3950   -15.0810    30.9300 c3         1 MJN       0.044700
     11 C07         -6.0300   -17.6510    31.0990 c6         1 MJN      -0.061700
     12 C08         -7.1290   -18.6090    31.6040 c6         1 MJN      -0.091900
     13 C09         -6.8710   -20.0700    31.1640 c6         1 MJN       0.099500
     14 C11         -5.2180   -21.9670    31.3690 c          1 MJN       0.601100
     15 C14         -7.1050   -23.4290    30.5010 ca         1 MJN      -0.122300
     16 C16         -9.2060   -23.5670    29.2730 ca         1 MJN      -0.165000
     17 C19         -8.7470   -25.2900    25.9960 c          1 MJN       0.560200
     18 C25         -6.4560   -24.1050    29.4480 ca         1 MJN      -0.045000
     19 C27         -4.6750   -18.1630    31.6380 c6         1 MJN      -0.091900
     20 C31         -5.0980   -15.3820    27.0620 ca         1 MJN       0.288500
     21 C32         -4.3160   -15.9490    26.0340 ca         1 MJN      -0.100000
     22 C33         -4.6790   -15.7560    24.6910 ca         1 MJN      -0.077000
     23 C34         -5.8290   -14.9900    24.3830 cp         1 MJN      -0.060000
     24 C35         -6.2620   -14.7530    22.9680 cp         1 MJN      -0.044000
     25 C36         -6.9080   -13.5480    22.5920 ca         1 MJN      -0.095000
     26 C37         -7.3150   -13.3250    21.2650 ca         1 MJN      -0.109500
     27 C38         -7.0860   -14.3030    20.2850 ca         1 MJN      -0.100000
     28 C39         -6.4490   -15.5050    20.6330 ca         1 MJN      -0.109500
     29 C40         -6.0410   -15.7270    21.9600 ca         1 MJN      -0.095000
     30 C41         -6.5530   -14.4570    25.4820 ca         1 MJN       0.342900
     31 N02         -5.2840   -13.5400    32.8720 ns         1 MJN      -0.504900
     32 N10         -5.4990   -20.5820    31.4720 n          1 MJN      -0.409800
     33 N18         -9.2560   -24.6360    27.0840 ns         1 MJN      -0.375100
     34 N28         -5.5330   -15.0050    29.4580 ns         1 MJN      -0.471900
     35 N42         -6.2110   -14.6410    26.7800 nb         1 MJN      -0.674000
     36 O04         -6.2510   -12.7810    30.9600 o          1 MJN      -0.596100
     37 O12         -4.1080   -22.3560    31.0230 o          1 MJN      -0.615100
     38 O20         -9.4430   -25.6030    25.0440 o          1 MJN      -0.558000
     39 O30         -3.7120   -16.2420    28.8700 o          1 MJN      -0.611100
     40 H1          -6.9950   -22.5510    32.4690 hc         1 MJN       0.074700
     41 H2          -5.8320   -23.8690    32.1780 hc         1 MJN       0.074700
     42 H3          -9.0060   -22.6560    31.2180 ha         1 MJN       0.116000
     43 H4          -6.8920   -26.0910    25.2300 ha         1 MJN       0.209000
     44 H5          -4.2090   -19.6160    30.1010 h1         1 MJN       0.056700
     45 H6          -3.4730   -19.9570    31.6720 h1         1 MJN       0.056700
     46 H7          -5.0520   -12.4640    34.6650 h1         1 MJN       0.042367
     47 H8          -4.9470   -11.4830    33.1720 h1         1 MJN       0.042367
     48 H9          -6.5360   -12.0870    33.7390 h1         1 MJN       0.042367
     49 H10         -4.3530   -15.3150    31.1810 h1         1 MJN       0.073700
     50 H11         -7.3590   -15.9220    31.2410 hc         1 MJN       0.057200
     51 H12         -6.2970   -16.1130    32.6150 hc         1 MJN       0.057200
     52 H13         -6.0210   -17.6830    30.0000 hc         1 MJN       0.056700
     53 H14         -8.1120   -18.2900    31.2320 hc         1 MJN       0.051450
     54 H15         -7.1850   -18.5680    32.7010 hc         1 MJN       0.051450
     55 H16         -7.0300   -20.1470    30.0790 h1         1 MJN       0.056700
     56 H17         -7.6350   -20.6940    31.6430 h1         1 MJN       0.056700
     57 H18        -10.2710   -23.3600    29.2080 ha         1 MJN       0.123000
     58 H19         -4.8010   -26.1920    28.0310 hc         1 MJN       0.054367
     59 H20         -4.7400   -26.0600    26.2700 hc         1 MJN       0.054367
     60 H21         -4.4470   -24.6300    27.2660 hc         1 MJN       0.054367
     61 H22         -5.3920   -24.3100    29.5300 ha         1 MJN       0.129000
     62 H23         -4.6690   -18.1200    32.7360 hc         1 MJN       0.051450
     63 H24         -3.8510   -17.5230    31.2990 hc         1 MJN       0.051450
     64 H25         -3.4320   -16.5330    26.2790 ha         1 MJN       0.150000
     65 H26         -4.0650   -16.1830    23.9010 ha         1 MJN       0.127000
     66 H27         -7.0860   -12.7690    23.3300 ha         1 MJN       0.115000
     67 H28         -7.8060   -12.3920    20.9960 ha         1 MJN       0.116500
     68 H29         -7.4010   -14.1310    19.2570 ha         1 MJN       0.116000
     69 H30         -6.2730   -16.2660    19.8760 ha         1 MJN       0.116500
     70 H31         -5.5630   -16.6710    22.2090 ha         1 MJN       0.115000
     71 H32         -7.4550   -13.8700    25.3150 h4         1 MJN       0.024100
     72 H33         -4.8250   -14.3330    33.3070 hn         1 MJN       0.315500
     73 H34        -10.2450   -24.4260    27.0530 hn         1 MJN       0.328500
     74 H35         -6.2970   -14.4590    29.0680 hn         1 MJN       0.350500
     75 C23         -5.0510   -25.5420    27.1840 c3         1 MJN      -0.063900
     76 C06         -6.3280   -16.1780    31.5210 c3         1 MJN      -0.081400
     77 C29         -4.6990   -15.5980    28.5280 c          1 MJN       0.508600
@<TRIPOS>BOND
     1     1    14 1   
     2     1    15 1   
     3     1    40 1   
     4     1    41 1   
     5     2    15 ar  
     6     2    16 ar  
     7     2    42 1   
     8     3     6 ar  
     9     3    16 ar  
    10     3    33 1   
    11     4     5 2   
    12     4    17 1   
    13     4    43 1   
    14     5     6 1   
    15     5    75 1   
    16     6    18 ar  
    17     7    19 1   
    18     7    32 1   
    19     7    44 1   
    20     7    45 1   
    21     8    31 1   
    22     8    46 1   
    23     8    47 1   
    24     8    48 1   
    25     9    10 1   
    26     9    31 1   
    27     9    36 2   
    28    10    34 1   
    29    10    49 1   
    30    10    76 1   
    31    11    12 1   
    32    11    19 1   
    33    11    52 1   
    34    11    76 1   
    35    12    13 1   
    36    12    53 1   
    37    12    54 1   
    38    13    32 1   
    39    13    55 1   
    40    13    56 1   
    41    14    32 1   
    42    14    37 2   
    43    15    18 ar  
    44    16    57 1   
    45    17    33 1   
    46    17    38 2   
    47    18    61 1   
    48    19    62 1   
    49    19    63 1   
    50    20    21 ar  
    51    20    35 ar  
    52    20    77 1   
    53    21    22 ar  
    54    21    64 1   
    55    22    23 ar  
    56    22    65 1   
    57    23    24 1   
    58    23    30 ar  
    59    24    25 ar  
    60    24    29 ar  
    61    25    26 ar  
    62    25    66 1   
    63    26    27 ar  
    64    26    67 1   
    65    27    28 ar  
    66    27    68 1   
    67    28    29 ar  
    68    28    69 1   
    69    29    70 1   
    70    30    35 ar  
    71    30    71 1   
    72    31    72 1   
    73    33    73 1   
    74    34    74 1   
    75    34    77 1   
    76    39    77 2   
    77    50    76 1   
    78    51    76 1   
    79    58    75 1   
    80    59    75 1   
    81    60    75 1   
@<TRIPOS>SUBSTRUCTURE
     1 MJN         1 TEMP              0 ****  ****    0 ROOT
