@<TRIPOS>MOLECULE
MJN
   77    81     1     0     0
SMALL
abcg2


@<TRIPOS>ATOM
      1 C13         -6.6720   -22.8240    32.0330 c3         1 MJN      -0.104100
      2 C15         -8.8000   -23.6520    30.9430 ca         1 MJN      -0.059000
      3 C17         -8.8410   -24.4870    28.6890 ca         1 MJN       0.101600
      4 C21         -7.5530   -25.0670    26.2920 cc         1 MJN      -0.298200
      5 C22         -6.8150   -24.5480    27.3060 cd         1 MJN       0.026600
      6 C24         -7.4590   -24.2390    28.5640 ca         1 MJN      -0.126800
      7 C26         -4.6750   -19.9340    30.5140 c6         1 MJN       0.099500
      8 C01         -4.9610   -12.7550    33.4530 c3         1 MJN       0.097300
      9 C03         -5.5110   -14.1000    31.4790 c          1 MJN       0.578100
     10 C05         -5.2900   -15.4540    30.7870 c3         1 MJN       0.044700
     11 C07         -6.1350   -17.8880    30.7600 c6         1 MJN      -0.061700
     12 C08         -7.2290   -18.8080    31.3080 c6         1 MJN      -0.091900
     13 C09         -7.0950   -20.2300    30.7720 c6         1 MJN       0.099500
     14 C11         -5.4950   -21.9480    31.6260 c          1 MJN       0.601100
     15 C14         -7.4230   -23.4000    30.8510 ca         1 MJN      -0.122300
     16 C16         -9.5030   -24.1910    29.8850 ca         1 MJN      -0.165000
     17 C19         -8.9710   -25.3310    26.4020 c          1 MJN       0.560200
     18 C25         -6.7760   -23.6980    29.6650 ca         1 MJN      -0.045000
     19 C27         -4.7620   -18.5040    31.0370 c6         1 MJN      -0.091900
     20 C31         -4.8470   -14.7780    27.1030 ca         1 MJN       0.288500
     21 C32         -3.9370   -14.2870    26.1750 ca         1 MJN      -0.100000
     22 C33         -4.2950   -14.2710    24.8370 ca         1 MJN      -0.077000
     23 C34         -5.5500   -14.7440    24.4490 cp         1 MJN      -0.060000
     24 C35         -5.9850   -14.7570    23.0390 cp         1 MJN      -0.044000
     25 C36         -7.3180   -14.4980    22.6980 ca         1 MJN      -0.095000
     26 C37         -7.7260   -14.5180    21.3700 ca         1 MJN      -0.109500
     27 C38         -6.8120   -14.8000    20.3600 ca         1 MJN      -0.100000
     28 C39         -5.4840   -15.0580    20.6870 ca         1 MJN      -0.109500
     29 C40         -5.0730   -15.0350    22.0130 ca         1 MJN      -0.095000
     30 C41         -6.3880   -15.2210    25.4660 ca         1 MJN       0.342900
     31 N02         -4.8140   -13.9290    32.6110 ns         1 MJN      -0.504900
     32 N10         -5.7600   -20.7600    31.0420 n          1 MJN      -0.409800
     33 N18         -9.5270   -25.0160    27.6190 ns         1 MJN      -0.375100
     34 N28         -5.4370   -15.3390    29.3560 ns         1 MJN      -0.471900
     35 N42         -6.0530   -15.2390    26.7500 nb         1 MJN      -0.674000
     36 O04         -6.3020   -13.2650    31.0420 o          1 MJN      -0.596100
     37 O12         -4.3400   -22.3540    31.8080 o          1 MJN      -0.615100
     38 O20         -9.6680   -25.8030    25.4930 o          1 MJN      -0.558000
     39 O30         -3.4070   -14.3960    28.9790 o          1 MJN      -0.611100
     40 H1          -7.3610   -22.2750    32.6760 hc         1 MJN       0.074700
     41 H2          -6.2480   -23.6300    32.6340 hc         1 MJN       0.074700
     42 H3          -9.3240   -23.4140    31.8610 ha         1 MJN       0.116000
     43 H4          -7.0980   -25.3060    25.3400 ha         1 MJN       0.209000
     44 H5          -4.7500   -19.9310    29.4200 h1         1 MJN       0.056700
     45 H6          -3.7340   -20.3980    30.7890 h1         1 MJN       0.056700
     46 H7          -4.2930   -12.8570    34.3050 h1         1 MJN       0.042367
     47 H8          -4.7020   -11.8480    32.9040 h1         1 MJN       0.042367
     48 H9          -5.9870   -12.6590    33.8130 h1         1 MJN       0.042367
     49 H10         -4.2690   -15.7750    30.9950 h1         1 MJN       0.073700
     50 H11         -7.3000   -16.1170    31.1460 hc         1 MJN       0.057200
     51 H12         -6.1620   -16.5220    32.4250 hc         1 MJN       0.057200
     52 H13         -6.2650   -17.8360    29.6730 hc         1 MJN       0.056700
     53 H14         -8.2150   -18.4220    31.0390 hc         1 MJN       0.051450
     54 H15         -7.1720   -18.8320    32.4010 hc         1 MJN       0.051450
     55 H16         -7.2570   -20.2360    29.6880 h1         1 MJN       0.056700
     56 H17         -7.8480   -20.8690    31.2160 h1         1 MJN       0.056700
     57 H18        -10.5670   -24.3800    29.9650 ha         1 MJN       0.123000
     58 H19         -4.7660   -24.8600    27.8620 hc         1 MJN       0.054367
     59 H20         -5.0230   -24.5670    26.1330 hc         1 MJN       0.054367
     60 H21         -5.1180   -23.2350    27.2970 hc         1 MJN       0.054367
     61 H22         -5.7150   -23.5080    29.5750 ha         1 MJN       0.129000
     62 H23         -4.5730   -18.5010    32.1160 hc         1 MJN       0.051450
     63 H24         -3.9700   -17.9200    30.5660 hc         1 MJN       0.051450
     64 H25         -2.9760   -13.9210    26.5060 ha         1 MJN       0.150000
     65 H26         -3.6090   -13.8770    24.0980 ha         1 MJN       0.127000
     66 H27         -8.0340   -14.2580    23.4730 ha         1 MJN       0.115000
     67 H28         -8.7600   -14.3070    21.1250 ha         1 MJN       0.116500
     68 H29         -7.1320   -14.8170    19.3260 ha         1 MJN       0.116000
     69 H30         -4.7670   -15.2840    19.9070 ha         1 MJN       0.116500
     70 H31         -4.0420   -15.2550    22.2570 ha         1 MJN       0.115000
     71 H32         -7.3650   -15.6210    25.2200 h4         1 MJN       0.024100
     72 H33         -4.1710   -14.6500    32.8980 hn         1 MJN       0.315500
     73 H34        -10.5200   -25.1890    27.7170 hn         1 MJN       0.328500
     74 H35         -6.3090   -15.5940    28.9140 hn         1 MJN       0.350500
     75 C23         -5.3490   -24.2900    27.1340 c3         1 MJN      -0.063900
     76 C06         -6.2850   -16.4800    31.3400 c3         1 MJN      -0.081400
     77 C29         -4.4910   -14.8120    28.5640 c          1 MJN       0.508600
@<TRIPOS>BOND
     1     1    14 1   
     2     1    15 1   
     3     1    40 1   
     4     1    41 1   
     5     2    15 ar  
     6     2    16 ar  
     7     2    42 1   
     8     3     6 ar  
     9     3    16 ar  
    10     3    33 1   
    11     4     5 2   
    12     4    17 1   
    13     4    43 1   
    14     5     6 1   
    15     5    75 1   
    16     6    18 ar  
    17     7    19 1   
    18     7    32 1   
    19     7    44 1   
    20     7    45 1   
    21     8    31 1   
    22     8    46 1   
    23     8    47 1   
    24     8    48 1   
    25     9    10 1   
    26     9    31 1   
    27     9    36 2   
    28    10    34 1   
    29    10    49 1   
    30    10    76 1   
    31    11    12 1   
    32    11    19 1   
    33    11    52 1   
    34    11    76 1   
    35    12    13 1   
    36    12    53 1   
    37    12    54 1   
    38    13    32 1   
    39    13    55 1   
    40    13    56 1   
    41    14    32 1   
    42    14    37 2   
    43    15    18 ar  
    44    16    57 1   
    45    17    33 1   
    46    17    38 2   
    47    18    61 1   
    48    19    62 1   
    49    19    63 1   
    50    20    21 ar  
    51    20    35 ar  
    52    20    77 1   
    53    21    22 ar  
    54    21    64 1   
    55    22    23 ar  
    56    22    65 1   
    57    23    24 1   
    58    23    30 ar  
    59    24    25 ar  
    60    24    29 ar  
    61    25    26 ar  
    62    25    66 1   
    63    26    27 ar  
    64    26    67 1   
    65    27    28 ar  
    66    27    68 1   
    67    28    29 ar  
    68    28    69 1   
    69    29    70 1   
    70    30    35 ar  
    71    30    71 1   
    72    31    72 1   
    73    33    73 1   
    74    34    74 1   
    75    34    77 1   
    76    39    77 2   
    77    50    76 1   
    78    51    76 1   
    79    58    75 1   
    80    59    75 1   
    81    60    75 1   
@<TRIPOS>SUBSTRUCTURE
     1 MJN         1 TEMP              0 ****  ****    0 ROOT
