@<TRIPOS>MOLECULE
MJO
   46    48     1     0     0
SMALL
No Charge or Current Charge


@<TRIPOS>ATOM
      1 C6         -39.2970   -16.8180    -4.8840 c3         1 MJO      -0.091100
      2 C5         -37.7860   -17.1520    -4.8040 c6         1 MJO       0.145300
      3 C4         -36.9780   -16.7360    -6.0810 c6         1 MJO       0.145300
      4 C3         -35.4850   -17.1280    -5.8210 c6         1 MJO       0.188300
      5 C2         -34.9560   -16.4470    -4.5230 c6         1 MJO       0.091300
      6 C1         -35.9000   -16.8180    -3.3250 c6         1 MJO       0.307700
      7 O5         -37.2630   -16.4760    -3.6380 os         1 MJO      -0.461000
      8 O2         -33.5810   -16.8430    -4.2790 oh         1 MJO      -0.722000
      9 O3         -34.6240   -16.8040    -6.9270 oh         1 MJO      -0.640000
     10 O4         -37.1070   -15.3170    -6.3590 oh         1 MJO      -0.696000
     11 N1         -35.5850   -16.0540    -2.1290 ns         1 MJO      -0.501900
     12 C7         -34.5500   -16.3200    -1.2730 c          1 MJO       0.625700
     13 O6         -33.7050   -17.1530    -1.5720 o          1 MJO      -0.584100
     14 C8         -34.4890   -15.5240     0.0140 ca         1 MJO      -0.152600
     15 C9         -33.4370   -15.7650     0.9240 ca         1 MJO      -0.055000
     16 C10        -33.3510   -15.0430     2.1240 ca         1 MJO      -0.120000
     17 C11        -34.3120   -14.0690     2.4330 ca         1 MJO      -0.080000
     18 C12        -35.3840   -13.7980     1.5480 cp         1 MJO      -0.040000
     19 C14        -36.4110   -12.7600     1.8790 cp         1 MJO      -0.040000
     20 C15        -36.0540   -11.5660     2.5560 ca         1 MJO      -0.099000
     21 C16        -37.0170   -10.5900     2.8660 ca         1 MJO      -0.110000
     22 C17        -38.3600   -10.7880     2.5080 ca         1 MJO      -0.105000
     23 C18        -38.7380   -11.9630     1.8400 ca         1 MJO      -0.110000
     24 C20        -37.7740   -12.9380     1.5280 ca         1 MJO      -0.099000
     25 C13        -35.4540   -14.5380     0.3400 ca         1 MJO      -0.078000
     26 H1         -39.8260   -17.2010    -4.0030 hc         1 MJO       0.048367
     27 H2         -39.4740   -15.7370    -4.9310 hc         1 MJO       0.048367
     28 H3         -39.7560   -17.2760    -5.7680 hc         1 MJO       0.048367
     29 H4         -37.6900   -18.2380    -4.6550 h1         1 MJO       0.042700
     30 H5         -37.3480   -17.3230    -6.9350 h1         1 MJO       0.048700
     31 H6         -35.4550   -18.2160    -5.6590 h1         1 MJO       0.040700
     32 H7         -35.0100   -15.3560    -4.6580 h1         1 MJO       0.070700
     33 H8         -35.8280   -17.8950    -3.1040 h2         1 MJO       0.076700
     34 H9         -33.4950   -16.9760    -3.2940 ho         1 MJO       0.514000
     35 H10        -33.7330   -16.7200    -6.5140 ho         1 MJO       0.458000
     36 H11        -38.0480   -15.1530    -6.5930 ho         1 MJO       0.505000
     37 H12        -36.2520   -15.3520    -1.8450 hn         1 MJO       0.317500
     38 H13        -32.6800   -16.5170     0.7050 ha         1 MJO       0.136000
     39 H14        -32.5370   -15.2400     2.8180 ha         1 MJO       0.120000
     40 H15        -34.2330   -13.5300     3.3740 ha         1 MJO       0.118000
     41 H16        -35.0170   -11.3860     2.8300 ha         1 MJO       0.115000
     42 H17        -36.7210    -9.6790     3.3830 ha         1 MJO       0.114500
     43 H18        -39.1050   -10.0340     2.7490 ha         1 MJO       0.114000
     44 H19        -39.7790   -12.1210     1.5640 ha         1 MJO       0.114500
     45 H20        -38.0920   -13.8460     1.0220 ha         1 MJO       0.115000
     46 H21        -36.2660   -14.3200    -0.3470 ha         1 MJO       0.115000
@<TRIPOS>BOND
     1     1     2 1   
     2     1    26 1   
     3     1    27 1   
     4     1    28 1   
     5     2     3 1   
     6     2     7 1   
     7     2    29 1   
     8     3     4 1   
     9     3    10 1   
    10     3    30 1   
    11     4     5 1   
    12     4     9 1   
    13     4    31 1   
    14     5     6 1   
    15     5     8 1   
    16     5    32 1   
    17     6     7 1   
    18     6    11 1   
    19     6    33 1   
    20     8    34 1   
    21     9    35 1   
    22    10    36 1   
    23    11    12 1   
    24    11    37 1   
    25    12    13 2   
    26    12    14 1   
    27    14    15 ar  
    28    14    25 ar  
    29    15    16 ar  
    30    15    38 1   
    31    16    17 ar  
    32    16    39 1   
    33    17    18 ar  
    34    17    40 1   
    35    18    19 1   
    36    18    25 ar  
    37    19    20 ar  
    38    19    24 ar  
    39    20    21 ar  
    40    20    41 1   
    41    21    22 ar  
    42    21    42 1   
    43    22    23 ar  
    44    22    43 1   
    45    23    24 ar  
    46    23    44 1   
    47    24    45 1   
    48    25    46 1   
@<TRIPOS>SUBSTRUCTURE
     1 MJO         1 TEMP              0 ****  ****    0 ROOT
