@<TRIPOS>MOLECULE
MJO
   46    48     1     0     0
SMALL
bcc


@<TRIPOS>ATOM
      1 C6         -38.8190   -18.0350    -4.6560 c3         1 MJO      -0.091100
      2 C5         -37.3580   -17.6430    -4.7230 c6         1 MJO       0.122100
      3 C4         -37.0090   -16.8160    -5.9660 c6         1 MJO       0.122100
      4 C3         -35.5360   -16.4360    -5.8960 c6         1 MJO       0.165100
      5 C2         -35.2240   -15.7260    -4.5810 c6         1 MJO       0.068100
      6 C1         -35.6780   -16.6240    -3.4260 c6         1 MJO       0.284500
      7 O5         -37.0480   -16.9220    -3.5430 os         1 MJO      -0.414600
      8 O2         -33.8340   -15.5110    -4.5440 oh         1 MJO      -0.599800
      9 O3         -35.2050   -15.6560    -7.0130 oh         1 MJO      -0.577800
     10 O4         -37.7710   -15.6370    -6.0630 oh         1 MJO      -0.573800
     11 N1         -35.4570   -15.9880    -2.1670 ns         1 MJO      -0.568900
     12 C7         -35.1910   -16.6810    -1.0350 c          1 MJO       0.692700
     13 O6         -35.0470   -17.8920    -1.0180 o          1 MJO      -0.584100
     14 C8         -35.0400   -15.8710     0.2140 ca         1 MJO      -0.152600
     15 C9         -34.1960   -16.3630     1.2060 ca         1 MJO      -0.073000
     16 C10        -34.0160   -15.6440     2.3760 ca         1 MJO      -0.138000
     17 C11        -34.6920   -14.4500     2.5750 ca         1 MJO      -0.098000
     18 C12        -35.5590   -13.9510     1.6030 cp         1 MJO      -0.040000
     19 C14        -36.2930   -12.6870     1.8190 cp         1 MJO      -0.040000
     20 C15        -35.6790   -11.6090     2.4590 ca         1 MJO      -0.117000
     21 C16        -36.3660   -10.4220     2.6660 ca         1 MJO      -0.128000
     22 C17        -37.6800   -10.2910     2.2370 ca         1 MJO      -0.123000
     23 C18        -38.3010   -11.3560     1.5990 ca         1 MJO      -0.128000
     24 C20        -37.6140   -12.5430     1.3920 ca         1 MJO      -0.117000
     25 C13        -35.7190   -14.6750     0.4220 ca         1 MJO      -0.096000
     26 H1         -39.0070   -18.6820    -3.7990 hc         1 MJO       0.048367
     27 H2         -39.4690   -17.1640    -4.5670 hc         1 MJO       0.048367
     28 H3         -39.1040   -18.5840    -5.5540 hc         1 MJO       0.048367
     29 H4         -36.7500   -18.5610    -4.7660 h1         1 MJO       0.042700
     30 H5         -37.1580   -17.4600    -6.8440 h1         1 MJO       0.048700
     31 H6         -34.9690   -17.3810    -5.8970 h1         1 MJO       0.040700
     32 H7         -35.7790   -14.7790    -4.5390 h1         1 MJO       0.070700
     33 H8         -35.0870   -17.5490    -3.4520 h2         1 MJO       0.076700
     34 H9         -33.6360   -14.8250    -3.8990 ho         1 MJO       0.415000
     35 H10        -34.2650   -15.4520    -6.9630 ho         1 MJO       0.419000
     36 H11        -38.6620   -15.8650    -6.3460 ho         1 MJO       0.406000
     37 H12        -35.5650   -14.9860    -2.1180 hn         1 MJO       0.317500
     38 H13        -33.6720   -17.2970     1.0590 ha         1 MJO       0.154000
     39 H14        -33.3540   -16.0210     3.1440 ha         1 MJO       0.138000
     40 H15        -34.5600   -13.9150     3.5070 ha         1 MJO       0.136000
     41 H16        -34.6480   -11.6880     2.7810 ha         1 MJO       0.133000
     42 H17        -35.8700    -9.5950     3.1570 ha         1 MJO       0.132500
     43 H18        -38.2160    -9.3640     2.3980 ha         1 MJO       0.132000
     44 H19        -39.3270   -11.2660     1.2650 ha         1 MJO       0.132500
     45 H20        -38.1200   -13.3710     0.9120 ha         1 MJO       0.133000
     46 H21        -36.3930   -14.2900    -0.3340 ha         1 MJO       0.133000
@<TRIPOS>BOND
     1     1     2 1   
     2     1    26 1   
     3     1    27 1   
     4     1    28 1   
     5     2     3 1   
     6     2     7 1   
     7     2    29 1   
     8     3     4 1   
     9     3    10 1   
    10     3    30 1   
    11     4     5 1   
    12     4     9 1   
    13     4    31 1   
    14     5     6 1   
    15     5     8 1   
    16     5    32 1   
    17     6     7 1   
    18     6    11 1   
    19     6    33 1   
    20     8    34 1   
    21     9    35 1   
    22    10    36 1   
    23    11    12 1   
    24    11    37 1   
    25    12    13 2   
    26    12    14 1   
    27    14    15 ar  
    28    14    25 ar  
    29    15    16 ar  
    30    15    38 1   
    31    16    17 ar  
    32    16    39 1   
    33    17    18 ar  
    34    17    40 1   
    35    18    19 1   
    36    18    25 ar  
    37    19    20 ar  
    38    19    24 ar  
    39    20    21 ar  
    40    20    41 1   
    41    21    22 ar  
    42    21    42 1   
    43    22    23 ar  
    44    22    43 1   
    45    23    24 ar  
    46    23    44 1   
    47    24    45 1   
    48    25    46 1   
@<TRIPOS>SUBSTRUCTURE
     1 MJO         1 TEMP              0 ****  ****    0 ROOT
