@<TRIPOS>MOLECULE
MJP
   37    39     1     0     0
SMALL
No Charge or Current Charge


@<TRIPOS>ATOM
      1 N3          -2.8480    -3.7480     0.6200 n1         1 MJP      -0.469000
      2 C16         -3.3740    -2.7470     0.3310 cg         1 MJP       0.322700
      3 C14         -4.0430    -1.5420    -0.0260 cc         1 MJP      -0.065900
      4 C15         -5.3660    -1.4370    -0.4470 cd         1 MJP      -0.099100
      5 N2          -5.6690    -0.0780    -0.7110 na         1 MJP      -0.205700
      6 C11         -4.5100     0.6300    -0.4420 ca         1 MJP      -0.065200
      7 C10         -4.3060     2.0130    -0.5450 ca         1 MJP      -0.108000
      8 C9          -3.0310     2.5230    -0.2150 ca         1 MJP      -0.098000
      9 C12         -3.5120    -0.2090    -0.0300 ca         1 MJP      -0.053800
     10 C13         -2.2350     0.2640     0.3070 ca         1 MJP      -0.082000
     11 C8          -1.9960     1.6530     0.1990 ca         1 MJP       0.085100
     12 O1          -0.7690     2.1890     0.5250 os         1 MJP      -0.251200
     13 C2           0.4210     1.5500     0.2560 ca         1 MJP       0.102100
     14 C1           0.6180     0.8570    -0.9520 ca         1 MJP      -0.126000
     15 C3           1.4620     1.6270     1.1930 ca         1 MJP      -0.126000
     16 C4           2.6930     0.9940     0.9400 ca         1 MJP      -0.120500
     17 C5           2.8940     0.2800    -0.2640 ca         1 MJP      -0.043000
     18 C            1.8480     0.2240    -1.2050 ca         1 MJP      -0.120500
     19 N            4.1100    -0.3840    -0.5930 ns         1 MJP      -0.152000
     20 C6           5.2970    -0.5740     0.1070 c          1 MJP       0.605100
     21 O            5.5010    -0.1640     1.2470 o          1 MJP      -0.559100
     22 C7           6.3730    -1.3830    -0.6970 c3         1 MJP       0.069800
     23 N1           7.8060    -1.3030    -0.2350 n8         1 MJP      -0.973200
     24 H15         -6.1050    -2.2250    -0.5750 h4         1 MJP       0.226000
     25 H2          -6.5570     0.2990    -1.0310 hn         1 MJP       0.357000
     26 H10         -5.1050     2.6770    -0.8690 ha         1 MJP       0.121000
     27 H9          -2.8410     3.5920    -0.2830 ha         1 MJP       0.132000
     28 H13         -1.4580    -0.4180     0.6430 ha         1 MJP       0.142000
     29 H1          -0.1750     0.8110    -1.6940 ha         1 MJP       0.128500
     30 H3           1.3140     2.1750     2.1200 ha         1 MJP       0.128500
     31 H            1.9860    -0.3130    -2.1420 ha         1 MJP       0.129500
     32 H4           3.4730     1.0750     1.6900 ha         1 MJP       0.129500
     33 HA           4.1080    -0.7980    -1.5170 hn         1 MJP       0.145000
     34 H71C         6.0580    -2.4360    -0.6850 h1         1 MJP       0.043200
     35 H72C         6.3320    -1.0420    -1.7410 h1         1 MJP       0.043200
     36 H11N         7.8720    -1.6460     0.7330 hn         1 MJP       0.405000
     37 H12N         8.3800    -1.9690    -0.7700 hn         1 MJP       0.405000
@<TRIPOS>BOND
     1     1     2 3   
     2     2     3 1   
     3     3     4 2   
     4     3     9 1   
     5     4     5 1   
     6     4    24 1   
     7     5     6 1   
     8     5    25 1   
     9     6     7 ar  
    10     6     9 ar  
    11     7     8 ar  
    12     7    26 1   
    13     8    11 ar  
    14     8    27 1   
    15     9    10 ar  
    16    10    11 ar  
    17    10    28 1   
    18    11    12 1   
    19    12    13 1   
    20    13    14 ar  
    21    13    15 ar  
    22    14    18 ar  
    23    14    29 1   
    24    15    16 ar  
    25    15    30 1   
    26    16    17 ar  
    27    16    32 1   
    28    17    18 ar  
    29    17    19 1   
    30    18    31 1   
    31    19    20 1   
    32    19    33 1   
    33    20    21 2   
    34    20    22 1   
    35    22    23 1   
    36    22    34 1   
    37    22    35 1   
    38    23    36 1   
    39    23    37 1   
@<TRIPOS>SUBSTRUCTURE
     1 MJP         1 TEMP              0 ****  ****    0 ROOT
