@<TRIPOS>MOLECULE
MJP
   37    39     1     0     0
SMALL
bcc


@<TRIPOS>ATOM
      1 N3          -3.6730    -3.6840     1.3250 n1         1 MJP      -0.379800
      2 C16         -3.9810    -2.7090     0.7890 cg         1 MJP       0.233500
      3 C14         -4.3340    -1.5100     0.1440 cc         1 MJP      -0.065900
      4 C15         -5.4810    -1.2880    -0.5870 cd         1 MJP      -0.049100
      5 N2          -5.4710    -0.0270    -1.0530 na         1 MJP      -0.155400
      6 C11         -4.3280     0.6170    -0.6500 ca         1 MJP      -0.065200
      7 C10         -3.8930     1.9150    -0.8890 ca         1 MJP      -0.126000
      8 C9          -2.6770     2.2890    -0.3520 ca         1 MJP      -0.116000
      9 C12         -3.5750    -0.2920     0.1150 ca         1 MJP      -0.053800
     10 C13         -2.3540     0.1000     0.6620 ca         1 MJP      -0.100000
     11 C8          -1.9250     1.3890     0.4150 ca         1 MJP       0.085100
     12 O1          -0.7490     1.8420     0.9590 os         1 MJP      -0.251200
     13 C2           0.4290     1.3050     0.5240 ca         1 MJP       0.102100
     14 C1           0.5770     0.6750    -0.7050 ca         1 MJP      -0.144000
     15 C3           1.5300     1.4410     1.3570 ca         1 MJP      -0.144000
     16 C4           2.7740     0.9570     0.9790 ca         1 MJP      -0.138500
     17 C5           2.9310     0.3100    -0.2470 ca         1 MJP       0.049600
     18 C            1.8160     0.1820    -1.0770 ca         1 MJP      -0.138500
     19 N            4.1400    -0.2120    -0.7210 ns         1 MJP      -0.478100
     20 C6           5.3080    -0.4160    -0.0600 c          1 MJP       0.672100
     21 O            5.5020    -0.1040     1.0990 o          1 MJP      -0.559100
     22 C7           6.3550    -1.1150    -0.9100 c3         1 MJP       0.069800
     23 N1           7.6390    -1.1370    -0.2490 n8         1 MJP      -0.862800
     24 H15         -6.2960    -1.9610    -0.7980 h4         1 MJP       0.176000
     25 H2          -6.2010     0.3760    -1.6180 hn         1 MJP       0.306700
     26 H10         -4.4760     2.6080    -1.4800 ha         1 MJP       0.139000
     27 H9          -2.2970     3.2890    -0.5160 ha         1 MJP       0.150000
     28 H13         -1.7610    -0.5800     1.2620 ha         1 MJP       0.160000
     29 H1          -0.2590     0.5590    -1.3820 ha         1 MJP       0.146500
     30 H3           1.4220     1.9370     2.3130 ha         1 MJP       0.146500
     31 H            1.9140    -0.3110    -2.0370 ha         1 MJP       0.147500
     32 H4           3.6060     1.0870     1.6500 ha         1 MJP       0.147500
     33 HA           4.1110    -0.5380    -1.6760 hn         1 MJP       0.311500
     34 H71C         5.9530    -2.1070    -1.1690 h1         1 MJP       0.043200
     35 H72C         6.4520    -0.5770    -1.8570 h1         1 MJP       0.043200
     36 H11N         7.6010    -1.7460     0.5570 hn         1 MJP       0.349800
     37 H12N         8.3170    -1.5480    -0.8770 hn         1 MJP       0.349800
@<TRIPOS>BOND
     1     1     2 3   
     2     2     3 1   
     3     3     4 2   
     4     3     9 1   
     5     4     5 1   
     6     4    24 1   
     7     5     6 1   
     8     5    25 1   
     9     6     7 ar  
    10     6     9 ar  
    11     7     8 ar  
    12     7    26 1   
    13     8    11 ar  
    14     8    27 1   
    15     9    10 ar  
    16    10    11 ar  
    17    10    28 1   
    18    11    12 1   
    19    12    13 1   
    20    13    14 ar  
    21    13    15 ar  
    22    14    18 ar  
    23    14    29 1   
    24    15    16 ar  
    25    15    30 1   
    26    16    17 ar  
    27    16    32 1   
    28    17    18 ar  
    29    17    19 1   
    30    18    31 1   
    31    19    20 1   
    32    19    33 1   
    33    20    21 2   
    34    20    22 1   
    35    22    23 1   
    36    22    34 1   
    37    22    35 1   
    38    23    36 1   
    39    23    37 1   
@<TRIPOS>SUBSTRUCTURE
     1 MJP         1 TEMP              0 ****  ****    0 ROOT
