@<TRIPOS>MOLECULE
MJQ
   70    73     1     0     0
SMALL
No Charge or Current Charge


@<TRIPOS>ATOM
      1 CAW         -4.2760    -1.0340    -0.7920 ca         1 MJQ      -0.072500
      2 CAX         -5.3130    -0.5080    -1.5800 ca         1 MJQ      -0.119000
      3 CAY         -5.6050     0.8670    -1.5470 ca         1 MJQ      -0.059300
      4 CAZ         -6.7320     1.4350    -2.3960 c3         1 MJQ      -0.049800
      5 CAO         -4.8590     1.7070    -0.7020 ca         1 MJQ      -0.119000
      6 CAN         -3.8200     1.1830     0.0860 ca         1 MJQ      -0.072500
      7 CAM         -3.4960    -0.1910     0.0270 ca         1 MJQ      -0.145600
      8 CAL         -2.3960    -0.7930     0.8770 c          1 MJQ       0.623700
      9 OAV         -2.6070    -1.8560     1.4490 o          1 MJQ      -0.592100
     10 NAK         -1.1870    -0.0680     1.0890 n          1 MJQ      -0.400800
     11 CAU         -0.6950     0.8950     0.0550 c3         1 MJQ       0.104000
     12 CBC         -0.3860     2.3160     0.5810 c3         1 MJQ      -0.097400
     13 CBD          0.0400     3.2740    -0.5460 c3         1 MJQ       0.148800
     14 NBE          0.3330     4.6210    -0.0250 n8         1 MJQ      -0.994200
     15 CAJ         -0.2020    -0.5740     2.1090 c3         1 MJQ       0.149900
     16 CAB         -0.2910     0.1910     3.4750 c3         1 MJQ      -0.062700
     17 CAA         -1.7500     0.3920     3.9600 c3         1 MJQ      -0.090600
     18 CAC          0.5380    -0.5090     4.5830 c3         1 MJQ      -0.090600
     19 CAI          1.2140    -0.6890     1.5390 cc         1 MJQ       0.126900
     20 OAH          2.0610     0.3590     1.8780 os         1 MJQ      -0.209200
     21 CAG          3.0760     0.6430     0.9890 ca         1 MJQ       0.159100
     22 CAF          3.5960     1.9460     0.9890 ca         1 MJQ      -0.139000
     23 CAE          4.6750     2.2770     0.1560 ca         1 MJQ       0.168000
     24 ClA          5.3110     3.9160     0.1530 cl         1 MJQ      -0.182000
     25 CAP          5.2530     1.3000    -0.6670 ca         1 MJQ      -0.144000
     26 CAQ          4.7490    -0.0110    -0.6560 ca         1 MJQ      -0.015000
     27 CAR          3.6580    -0.3350     0.1790 ca         1 MJQ      -0.233600
     28 CAS          3.0780    -1.6910     0.2090 c          1 MJQ       0.590900
     29 OBA          3.6410    -2.6350    -0.3330 o          1 MJQ      -0.527100
     30 CAT          1.7540    -1.7820     0.8630 cd         1 MJQ      -0.264400
     31 CBB          0.9960    -3.0830     0.6260 c3         1 MJQ       0.024100
     32 CBG         -0.0130    -3.0410    -0.5220 ca         1 MJQ      -0.058300
     33 CBF         -1.0950    -3.9440    -0.5240 ca         1 MJQ      -0.107500
     34 CBI         -2.0360    -3.9310    -1.5680 ca         1 MJQ      -0.110500
     35 CBJ         -1.9060    -3.0100    -2.6200 ca         1 MJQ      -0.120000
     36 CBK         -0.8290    -2.1100    -2.6320 ca         1 MJQ      -0.110500
     37 CBH          0.1180    -2.1300    -1.5940 ca         1 MJQ      -0.107500
     38 HAW         -4.0700    -2.1010    -0.8260 ha         1 MJQ       0.125500
     39 HAX         -5.8940    -1.1740    -2.2150 ha         1 MJQ       0.114500
     40 HAZ1        -7.6820     1.4100    -1.8500 hc         1 MJQ       0.044700
     41 HAZ2        -6.5340     2.4750    -2.6790 hc         1 MJQ       0.044700
     42 HAZ3        -6.8620     0.8620    -3.3220 hc         1 MJQ       0.044700
     43 HAO         -5.0910     2.7680    -0.6460 ha         1 MJQ       0.114500
     44 HAN         -3.2850     1.8450     0.7590 ha         1 MJQ       0.125500
     45 HAU1         0.2130     0.4940    -0.4110 h1         1 MJQ       0.052700
     46 HAU2        -1.4180     0.9750    -0.7640 h1         1 MJQ       0.052700
     47 HAJ         -0.4830    -1.6000     2.3650 h1         1 MJQ       0.105700
     48 HBC1        -1.2640     2.7230     1.0940 hc         1 MJQ       0.055200
     49 HBC2         0.4180     2.2720     1.3210 hc         1 MJQ       0.055200
     50 HBD1         0.9420     2.8850    -1.0390 h1         1 MJQ       0.028700
     51 HBD2        -0.7620     3.3500    -1.2930 h1         1 MJQ       0.028700
     52 HBE1         0.5620     5.2420    -0.8100 hn         1 MJQ       0.393500
     53 HBE2        -0.5290     5.0270     0.3580 hn         1 MJQ       0.393500
     54 HAB          0.1280     1.1950     3.3400 hc         1 MJQ       0.062700
     55 HAA1        -2.2610    -0.5710     4.0750 hc         1 MJQ       0.039200
     56 HAA2        -1.7680     0.9050     4.9300 hc         1 MJQ       0.039200
     57 HAA3        -2.3220     1.0070     3.2550 hc         1 MJQ       0.039200
     58 HAC1         1.5950    -0.5910     4.3050 hc         1 MJQ       0.039200
     59 HAC2         0.4870     0.0580     5.5200 hc         1 MJQ       0.039200
     60 HAC3         0.1570    -1.5190     4.7750 hc         1 MJQ       0.039200
     61 HAF          3.1590     2.7030     1.6340 ha         1 MJQ       0.152000
     62 HAP          6.0910     1.5570    -1.3090 ha         1 MJQ       0.138000
     63 HAQ          5.2020    -0.7660    -1.2970 ha         1 MJQ       0.144000
     64 HBB1         1.6850    -3.9180     0.4510 hc         1 MJQ       0.070700
     65 HBB2         0.4810    -3.3730     1.5490 hc         1 MJQ       0.070700
     66 HBF         -1.2090    -4.6580     0.2880 ha         1 MJQ       0.111000
     67 HBH          0.9510    -1.4340    -1.6330 ha         1 MJQ       0.111000
     68 HBI         -2.8680    -4.6310    -1.5580 ha         1 MJQ       0.110500
     69 HBJ         -2.6370    -2.9960    -3.4250 ha         1 MJQ       0.110000
     70 HBK         -0.7230    -1.4000    -3.4500 ha         1 MJQ       0.110500
@<TRIPOS>BOND
     1     1     2 ar  
     2     1     7 ar  
     3     1    38 1   
     4     2     3 ar  
     5     2    39 1   
     6     3     4 1   
     7     3     5 ar  
     8     4    40 1   
     9     4    41 1   
    10     4    42 1   
    11     5     6 ar  
    12     5    43 1   
    13     6     7 ar  
    14     6    44 1   
    15     7     8 1   
    16     8     9 2   
    17     8    10 1   
    18    10    11 1   
    19    10    15 1   
    20    11    12 1   
    21    11    45 1   
    22    11    46 1   
    23    12    13 1   
    24    12    48 1   
    25    12    49 1   
    26    13    14 1   
    27    13    50 1   
    28    13    51 1   
    29    14    52 1   
    30    14    53 1   
    31    15    16 1   
    32    15    19 1   
    33    15    47 1   
    34    16    17 1   
    35    16    18 1   
    36    16    54 1   
    37    17    55 1   
    38    17    56 1   
    39    17    57 1   
    40    18    58 1   
    41    18    59 1   
    42    18    60 1   
    43    19    20 1   
    44    19    30 2   
    45    20    21 1   
    46    21    22 ar  
    47    21    27 ar  
    48    22    23 ar  
    49    22    61 1   
    50    23    24 1   
    51    23    25 ar  
    52    25    26 ar  
    53    25    62 1   
    54    26    27 ar  
    55    26    63 1   
    56    27    28 1   
    57    28    29 2   
    58    28    30 1   
    59    30    31 1   
    60    31    32 1   
    61    31    64 1   
    62    31    65 1   
    63    32    33 ar  
    64    32    37 ar  
    65    33    34 ar  
    66    33    66 1   
    67    34    35 ar  
    68    34    68 1   
    69    35    36 ar  
    70    35    69 1   
    71    36    37 ar  
    72    36    70 1   
    73    37    67 1   
@<TRIPOS>SUBSTRUCTURE
     1 MJQ         1 TEMP              0 ****  ****    0 ROOT
