@<TRIPOS>MOLECULE
MJQ
   70    73     1     0     0
SMALL
abcg2


@<TRIPOS>ATOM
      1 CAW         -3.7810    -1.0390    -0.8320 ca         1 MJQ      -0.072500
      2 CAX         -4.8140    -0.6690    -1.6800 ca         1 MJQ      -0.119000
      3 CAY         -5.4730     0.5480    -1.5270 ca         1 MJQ      -0.059300
      4 CAZ         -6.6030     0.9400    -2.4340 c3         1 MJQ      -0.049800
      5 CAO         -5.0610     1.3920    -0.4970 ca         1 MJQ      -0.119000
      6 CAN         -4.0160     1.0390     0.3420 ca         1 MJQ      -0.072500
      7 CAM         -3.3630    -0.1780     0.1750 ca         1 MJQ      -0.145600
      8 CAL         -2.2990    -0.6400     1.1190 c          1 MJQ       0.623700
      9 OAV         -2.5110    -1.6270     1.8090 o          1 MJQ      -0.592100
     10 NAK         -1.1420     0.0710     1.1740 n          1 MJQ      -0.400800
     11 CAU         -0.8130     1.1110     0.2070 c3         1 MJQ       0.104000
     12 CBC         -0.8190     2.5390     0.7350 c3         1 MJQ      -0.097400
     13 CBD         -0.5730     3.5240    -0.3990 c3         1 MJQ       0.148800
     14 NBE         -0.5350     4.8890     0.1020 n8         1 MJQ      -0.994200
     15 CAJ         -0.1320    -0.3460     2.1490 c3         1 MJQ       0.149900
     16 CAB         -0.0090     0.5640     3.3880 c3         1 MJQ      -0.062700
     17 CAA         -1.3820     0.8650     3.9780 c3         1 MJQ      -0.090600
     18 CAC          0.8630    -0.1260     4.4360 c3         1 MJQ      -0.090600
     19 CAI          1.1760    -0.5930     1.4340 cc         1 MJQ       0.126900
     20 OAH          2.0210     0.4450     1.5460 os         1 MJQ      -0.209200
     21 CAG          3.2200     0.4430     0.9380 ca         1 MJQ       0.159100
     22 CAF          4.0130     1.5720     1.1170 ca         1 MJQ      -0.139000
     23 CAE          5.2440     1.5950     0.4980 ca         1 MJQ       0.168000
     24 CLA          6.2550     2.9790     0.6970 cl         1 MJQ      -0.182000
     25 CAP          5.6970     0.5310    -0.2850 ca         1 MJQ      -0.144000
     26 CAQ          4.8910    -0.5720    -0.4430 ca         1 MJQ      -0.015000
     27 CAR          3.6340    -0.6370     0.1690 ca         1 MJQ      -0.233600
     28 CAS          2.7490    -1.7940     0.0170 c          1 MJQ       0.590900
     29 OBA          3.0620    -2.7680    -0.6510 o          1 MJQ      -0.527100
     30 CAT          1.4690    -1.6990     0.7140 cd         1 MJQ      -0.264400
     31 CBB          0.5260    -2.8530     0.5660 c3         1 MJQ       0.024100
     32 CBG         -0.2750    -2.8730    -0.7170 ca         1 MJQ      -0.058300
     33 CBF         -1.1350    -3.9490    -0.9430 ca         1 MJQ      -0.107500
     34 CBI         -1.8800    -4.0380    -2.1080 ca         1 MJQ      -0.110500
     35 CBJ         -1.7860    -3.0420    -3.0740 ca         1 MJQ      -0.120000
     36 CBK         -0.9430    -1.9640    -2.8560 ca         1 MJQ      -0.110500
     37 CBH         -0.1920    -1.8830    -1.6880 ca         1 MJQ      -0.107500
     38 HAW         -3.2890    -1.9920    -0.9720 ha         1 MJQ       0.125500
     39 HAX         -5.1180    -1.3450    -2.4710 ha         1 MJQ       0.114500
     40 HAZ1        -7.5430     1.0100    -1.8840 hc         1 MJQ       0.044700
     41 HAZ2        -6.4250     1.9160    -2.8880 hc         1 MJQ       0.044700
     42 HAZ3        -6.7390     0.2160    -3.2360 hc         1 MJQ       0.044700
     43 HAO         -5.5600     2.3420    -0.3470 ha         1 MJQ       0.114500
     44 HAN         -3.7220     1.7170     1.1330 ha         1 MJQ       0.125500
     45 HAU1         0.1650     0.8900    -0.2270 h1         1 MJQ       0.052700
     46 HAU2        -1.5100     1.0350    -0.6260 h1         1 MJQ       0.052700
     47 HAJ         -0.4670    -1.3110     2.5290 h1         1 MJQ       0.105700
     48 HBC1        -1.7820     2.7610     1.2020 hc         1 MJQ       0.055200
     49 HBC2        -0.0540     2.6810     1.5000 hc         1 MJQ       0.055200
     50 HBD1         0.3930     3.3030    -0.8610 h1         1 MJQ       0.028700
     51 HBD2        -1.3320     3.3610    -1.1790 h1         1 MJQ       0.028700
     52 HBE1        -0.3260     5.5200    -0.6610 hn         1 MJQ       0.393500
     53 HBE2        -1.4590     5.1520     0.4250 hn         1 MJQ       0.393500
     54 HAB          0.4590     1.5120     3.1180 hc         1 MJQ       0.062700
     55 HAA1        -1.8970    -0.0500     4.2760 hc         1 MJQ       0.039200
     56 HAA2        -1.2740     1.4870     4.8670 hc         1 MJQ       0.039200
     57 HAA3        -2.0260     1.4030     3.2830 hc         1 MJQ       0.039200
     58 HAC1         1.8730    -0.3360     4.0820 hc         1 MJQ       0.039200
     59 HAC2         0.9560     0.5010     5.3230 hc         1 MJQ       0.039200
     60 HAC3         0.4150    -1.0730     4.7450 hc         1 MJQ       0.039200
     61 HAF          3.6650     2.3970     1.7240 ha         1 MJQ       0.152000
     62 HAP          6.6670     0.5780    -0.7600 ha         1 MJQ       0.138000
     63 HAQ          5.2290    -1.4030    -1.0470 ha         1 MJQ       0.144000
     64 HBB1         1.1070    -3.7770     0.6190 hc         1 MJQ       0.070700
     65 HBB2        -0.1680    -2.9020     1.4050 hc         1 MJQ       0.070700
     66 HBF         -1.2160    -4.7300    -0.1950 ha         1 MJQ       0.111000
     67 HBH          0.4700    -1.0360    -1.5520 ha         1 MJQ       0.111000
     68 HBI         -2.5380    -4.8840    -2.2620 ha         1 MJQ       0.110500
     69 HBJ         -2.3690    -3.1060    -3.9840 ha         1 MJQ       0.110000
     70 HBK         -0.8630    -1.1780    -3.5960 ha         1 MJQ       0.110500
@<TRIPOS>BOND
     1     1     2 ar  
     2     1     7 ar  
     3     1    38 1   
     4     2     3 ar  
     5     2    39 1   
     6     3     4 1   
     7     3     5 ar  
     8     4    40 1   
     9     4    41 1   
    10     4    42 1   
    11     5     6 ar  
    12     5    43 1   
    13     6     7 ar  
    14     6    44 1   
    15     7     8 1   
    16     8     9 2   
    17     8    10 1   
    18    10    11 1   
    19    10    15 1   
    20    11    12 1   
    21    11    45 1   
    22    11    46 1   
    23    12    13 1   
    24    12    48 1   
    25    12    49 1   
    26    13    14 1   
    27    13    50 1   
    28    13    51 1   
    29    14    52 1   
    30    14    53 1   
    31    15    16 1   
    32    15    19 1   
    33    15    47 1   
    34    16    17 1   
    35    16    18 1   
    36    16    54 1   
    37    17    55 1   
    38    17    56 1   
    39    17    57 1   
    40    18    58 1   
    41    18    59 1   
    42    18    60 1   
    43    19    20 1   
    44    19    30 2   
    45    20    21 1   
    46    21    22 ar  
    47    21    27 ar  
    48    22    23 ar  
    49    22    61 1   
    50    23    24 1   
    51    23    25 ar  
    52    25    26 ar  
    53    25    62 1   
    54    26    27 ar  
    55    26    63 1   
    56    27    28 1   
    57    28    29 2   
    58    28    30 1   
    59    30    31 1   
    60    31    32 1   
    61    31    64 1   
    62    31    65 1   
    63    32    33 ar  
    64    32    37 ar  
    65    33    34 ar  
    66    33    66 1   
    67    34    35 ar  
    68    34    68 1   
    69    35    36 ar  
    70    35    69 1   
    71    36    37 ar  
    72    36    70 1   
    73    37    67 1   
@<TRIPOS>SUBSTRUCTURE
     1 MJQ         1 TEMP              0 ****  ****    0 ROOT
