@<TRIPOS>MOLECULE
MJR
   29    30     1     0     0
SMALL
No Charge or Current Charge


@<TRIPOS>ATOM
      1 N1           7.1520     1.4740    17.2830 na         1 MJR      -0.014200
      2 C4           9.2370     1.4400    21.1850 c          1 MJR       0.601100
      3 C5           9.6070     0.9880    22.6040 c3         1 MJR      -0.112100
      4 C6          10.8670     0.1280    22.5850 ca         1 MJR      -0.074300
      5 C7          12.1390     0.7280    22.6810 ca         1 MJR      -0.087000
      6 C8          13.3010    -0.0630    22.6580 ca         1 MJR      -0.100000
      7 C10         11.9340    -2.0620    22.4420 ca         1 MJR       0.123000
      8 Cl          11.8040    -3.8100    22.2910 cl         1 MJR      -0.215000
      9 C9          13.1990    -1.4600    22.5390 ca         1 MJR      -0.098000
     10 C11         10.7720    -1.2730    22.4650 ca         1 MJR      -0.102000
     11 O            9.8150     2.3650    20.6300 o          1 MJR      -0.582100
     12 N2           8.2180     0.7080    20.5930 ns         1 MJR      -0.393100
     13 C3           7.6600     0.8440    19.3190 cc         1 MJR      -0.093400
     14 C1           6.6290     0.0540    18.7670 cc         1 MJR       0.270300
     15 C            5.9760    -1.0780    19.5100 c3         1 MJR      -0.120400
     16 C2           7.9980     1.7580    18.3650 cd         1 MJR      -0.140000
     17 N            6.2940     0.4030    17.5400 nd         1 MJR      -0.518800
     18 H1           7.1340     1.9680    16.3910 hn         1 MJR       0.377000
     19 H2           9.7810     1.8780    23.2190 hc         1 MJR       0.070700
     20 H3           8.7840     0.4070    23.0370 hc         1 MJR       0.070700
     21 H4          12.2280     1.8090    22.7690 ha         1 MJR       0.129000
     22 H5          14.2800     0.4060    22.7320 ha         1 MJR       0.122000
     23 H6          14.0960    -2.0740    22.5210 ha         1 MJR       0.131000
     24 H7           9.8000    -1.7540    22.3880 ha         1 MJR       0.123000
     25 H8           7.8510    -0.0270    21.1870 hn         1 MJR       0.318500
     26 H9           5.2050    -1.5630    18.9000 hc         1 MJR       0.050033
     27 H10          6.7160    -1.8400    19.7830 hc         1 MJR       0.050033
     28 H11          5.5010    -0.7170    20.4290 hc         1 MJR       0.050033
     29 H12          8.7320     2.5550    18.3500 h4         1 MJR       0.162000
@<TRIPOS>BOND
     1     1    16 1   
     2     1    17 1   
     3     1    18 1   
     4     2     3 1   
     5     2    11 2   
     6     2    12 1   
     7     3     4 1   
     8     3    19 1   
     9     3    20 1   
    10     4     5 ar  
    11     4    10 ar  
    12     5     6 ar  
    13     5    21 1   
    14     6     9 ar  
    15     6    22 1   
    16     7     8 1   
    17     7     9 ar  
    18     7    10 ar  
    19     9    23 1   
    20    10    24 1   
    21    12    13 1   
    22    12    25 1   
    23    13    14 1   
    24    13    16 2   
    25    14    15 1   
    26    14    17 2   
    27    15    26 1   
    28    15    27 1   
    29    15    28 1   
    30    16    29 1   
@<TRIPOS>SUBSTRUCTURE
     1 MJR         1 TEMP              0 ****  ****    0 ROOT
