@<TRIPOS>MOLECULE
MJR
   29    30     1     0     0
SMALL
abcg2


@<TRIPOS>ATOM
      1 N1           7.5940     0.8850    17.1860 na         1 MJR      -0.014200
      2 C4           8.8020     0.6500    21.4450 c          1 MJR       0.601100
      3 C5           9.3290    -0.0400    22.6980 c3         1 MJR      -0.112100
      4 C6          10.8220    -0.2450    22.5900 ca         1 MJR      -0.074300
      5 C7          11.7120     0.7630    22.9620 ca         1 MJR      -0.087000
      6 C8          13.0820     0.5810    22.8220 ca         1 MJR      -0.100000
      7 C10         12.6970    -1.6060    21.9480 ca         1 MJR       0.123000
      8 CL          13.3130    -3.1190    21.3100 cl         1 MJR      -0.215000
      9 C9          13.5910    -0.6090    22.3130 ca         1 MJR      -0.098000
     10 C11         11.3250    -1.4410    22.0770 ca         1 MJR      -0.102000
     11 O            8.8660     1.8660    21.3030 o          1 MJR      -0.582100
     12 N2           8.3040    -0.1840    20.5000 ns         1 MJR      -0.393100
     13 C3           7.7970     0.2610    19.2600 cc         1 MJR      -0.093400
     14 C1           6.4600     0.6250    18.9740 cc         1 MJR       0.270300
     15 C            5.2970     0.6120    19.9060 c3         1 MJR      -0.120400
     16 C2           8.4950     0.4450    18.0840 cd         1 MJR      -0.140000
     17 N            6.3500     1.0020    17.7020 nd         1 MJR      -0.518800
     18 H1           7.7590     1.1200    16.2210 hn         1 MJR       0.377000
     19 H2           9.0980     0.6080    23.5420 hc         1 MJR       0.070700
     20 H3           8.8300    -0.9980    22.8450 hc         1 MJR       0.070700
     21 H4          11.3280     1.6920    23.3630 ha         1 MJR       0.129000
     22 H5          13.7660     1.3670    23.1160 ha         1 MJR       0.122000
     23 H6          14.6560    -0.7610    22.2060 ha         1 MJR       0.131000
     24 H7          10.6530    -2.2360    21.7850 ha         1 MJR       0.123000
     25 H8           8.2580    -1.1690    20.7140 hn         1 MJR       0.318500
     26 H9           4.4090     1.0000    19.4080 hc         1 MJR       0.050033
     27 H10          5.0850    -0.4010    20.2550 hc         1 MJR       0.050033
     28 H11          5.4980     1.2240    20.7880 hc         1 MJR       0.050033
     29 H12          9.5340     0.2990    17.8400 h4         1 MJR       0.162000
@<TRIPOS>BOND
     1     1    16 1   
     2     1    17 1   
     3     1    18 1   
     4     2     3 1   
     5     2    11 2   
     6     2    12 1   
     7     3     4 1   
     8     3    19 1   
     9     3    20 1   
    10     4     5 ar  
    11     4    10 ar  
    12     5     6 ar  
    13     5    21 1   
    14     6     9 ar  
    15     6    22 1   
    16     7     8 1   
    17     7     9 ar  
    18     7    10 ar  
    19     9    23 1   
    20    10    24 1   
    21    12    13 1   
    22    12    25 1   
    23    13    14 1   
    24    13    16 2   
    25    14    15 1   
    26    14    17 2   
    27    15    26 1   
    28    15    27 1   
    29    15    28 1   
    30    16    29 1   
@<TRIPOS>SUBSTRUCTURE
     1 MJR         1 TEMP              0 ****  ****    0 ROOT
