@<TRIPOS>MOLECULE
MJT
   29    31     1     0     0
SMALL
No Charge or Current Charge


@<TRIPOS>ATOM
      1 O18         -3.8340    -0.0820    16.1460 o          1 MJT      -0.545000
      2 S2          -4.8940     0.9190    16.0650 sy         1 MJT       1.115600
      3 O1          -4.9000     2.0450    16.9950 o          1 MJT      -0.545000
      4 N3          -6.2370     0.0840    16.4710 n8         1 MJT      -1.004100
      5 C4          -5.2190     1.4460    14.3370 ca         1 MJT      -0.256500
      6 C17         -4.7770     0.6440    13.2300 ca         1 MJT       0.080000
      7 C16         -4.4010    -0.7220    13.3460 ca         1 MJT      -0.123500
      8 C15         -3.9320    -1.4540    12.2420 ca         1 MJT      -0.074000
      9 C14         -3.8400    -0.8510    10.9840 ca         1 MJT      -0.116000
     10 C13         -4.2520     0.4770    10.8260 ca         1 MJT      -0.087000
     11 C12         -4.7340     1.2100    11.9290 ca         1 MJT      -0.074500
     12 C11         -5.1820     2.5150    11.7060 ca         1 MJT      -0.012000
     13 C10         -5.7580     3.2520    12.7440 ca         1 MJT      -0.074500
     14 C5          -5.8190     2.7210    14.0590 ca         1 MJT       0.080000
     15 C9          -6.2820     4.5250    12.4420 ca         1 MJT      -0.087000
     16 C8          -6.9150     5.2840    13.4330 ca         1 MJT      -0.116000
     17 C7          -7.0460     4.7580    14.7220 ca         1 MJT      -0.074000
     18 C6          -6.5150     3.4940    15.0290 ca         1 MJT      -0.123500
     19 H1          -5.8240    -0.7830    16.8060 hn         1 MJT       0.471000
     20 H2          -6.4920     0.5500    17.3390 hn         1 MJT       0.471000
     21 H3          -4.5110    -1.2730    14.2700 ha         1 MJT       0.139000
     22 H4          -3.6500    -2.4980    12.3630 ha         1 MJT       0.117500
     23 H5          -3.4760    -1.4180    10.1290 ha         1 MJT       0.119000
     24 H6          -4.2090     0.9320     9.8390 ha         1 MJT       0.114000
     25 H7          -5.1400     2.9360    10.7040 ha         1 MJT       0.116000
     26 H8          -6.2100     4.9250    11.4330 ha         1 MJT       0.114000
     27 H9          -7.3270     6.2620    13.1950 ha         1 MJT       0.119000
     28 H10         -7.5730     5.3250    15.4860 ha         1 MJT       0.117500
     29 H11         -6.7150     3.1230    16.0250 ha         1 MJT       0.139000
@<TRIPOS>BOND
     1     1     2 2   
     2     2     3 2   
     3     2     4 1   
     4     2     5 1   
     5     4    19 1   
     6     4    20 1   
     7     5     6 ar  
     8     5    14 ar  
     9     6     7 ar  
    10     6    11 ar  
    11     7     8 ar  
    12     7    21 1   
    13     8     9 ar  
    14     8    22 1   
    15     9    10 ar  
    16     9    23 1   
    17    10    11 ar  
    18    10    24 1   
    19    11    12 ar  
    20    12    13 ar  
    21    12    25 1   
    22    13    14 ar  
    23    13    15 ar  
    24    14    18 ar  
    25    15    16 ar  
    26    15    26 1   
    27    16    17 ar  
    28    16    27 1   
    29    17    18 ar  
    30    17    28 1   
    31    18    29 1   
@<TRIPOS>SUBSTRUCTURE
     1 MJT         1 TEMP              0 ****  ****    0 ROOT
