@<TRIPOS>MOLECULE
MJT
   29    31     1     0     0
SMALL
abcg2


@<TRIPOS>ATOM
      1 O18         -3.5940     0.2160    16.0630 o          1 MJT      -0.545000
      2 S2          -4.8610     0.9330    16.0240 sy         1 MJT       1.115600
      3 O1          -4.9770     2.0430    16.9600 o          1 MJT      -0.545000
      4 N3          -6.0440    -0.2030    16.2140 n8         1 MJT      -1.004100
      5 C4          -5.1850     1.4980    14.3580 ca         1 MJT      -0.256500
      6 C17         -4.7590     0.6640    13.2980 ca         1 MJT       0.080000
      7 C16         -4.3400    -0.6950    13.4290 ca         1 MJT      -0.123500
      8 C15         -3.9400    -1.4190    12.3460 ca         1 MJT      -0.074000
      9 C14         -3.9100    -0.8610    11.0450 ca         1 MJT      -0.116000
     10 C13         -4.3280     0.4180    10.8670 ca         1 MJT      -0.087000
     11 C12         -4.7780     1.1990    11.9690 ca         1 MJT      -0.074500
     12 C11         -5.2470     2.4860    11.7520 ca         1 MJT      -0.012000
     13 C10         -5.7700     3.2600    12.7760 ca         1 MJT      -0.074500
     14 C5          -5.7720     2.7620    14.1230 ca         1 MJT       0.080000
     15 C9          -6.3150     4.5400    12.4740 ca         1 MJT      -0.087000
     16 C8          -6.8920     5.2980    13.4400 ca         1 MJT      -0.116000
     17 C7          -6.9590     4.7910    14.7610 ca         1 MJT      -0.074000
     18 C6          -6.4220     3.5850    15.0960 ca         1 MJT      -0.123500
     19 H1          -5.8680    -0.7960    17.0210 hn         1 MJT       0.471000
     20 H2          -6.9710     0.2050    16.2790 hn         1 MJT       0.471000
     21 H3          -4.3580    -1.1930    14.3830 ha         1 MJT       0.139000
     22 H4          -3.6470    -2.4520    12.4860 ha         1 MJT       0.117500
     23 H5          -3.5770    -1.4580    10.2070 ha         1 MJT       0.119000
     24 H6          -4.3440     0.8670     9.8810 ha         1 MJT       0.114000
     25 H7          -5.2340     2.8860    10.7440 ha         1 MJT       0.116000
     26 H8          -6.2730     4.8840    11.4480 ha         1 MJT       0.114000
     27 H9          -7.3140     6.2660    13.2080 ha         1 MJT       0.119000
     28 H10         -7.4580     5.3710    15.5260 ha         1 MJT       0.117500
     29 H11         -6.5230     3.2540    16.1140 ha         1 MJT       0.139000
@<TRIPOS>BOND
     1     1     2 2   
     2     2     3 2   
     3     2     4 1   
     4     2     5 1   
     5     4    19 1   
     6     4    20 1   
     7     5     6 ar  
     8     5    14 ar  
     9     6     7 ar  
    10     6    11 ar  
    11     7     8 ar  
    12     7    21 1   
    13     8     9 ar  
    14     8    22 1   
    15     9    10 ar  
    16     9    23 1   
    17    10    11 ar  
    18    10    24 1   
    19    11    12 ar  
    20    12    13 ar  
    21    12    25 1   
    22    13    14 ar  
    23    13    15 ar  
    24    14    18 ar  
    25    15    16 ar  
    26    15    26 1   
    27    16    17 ar  
    28    16    27 1   
    29    17    18 ar  
    30    17    28 1   
    31    18    29 1   
@<TRIPOS>SUBSTRUCTURE
     1 MJT         1 TEMP              0 ****  ****    0 ROOT
