@<TRIPOS>MOLECULE
MJU
   48    53     1     0     0
SMALL
No Charge or Current Charge


@<TRIPOS>ATOM
      1 N19          4.8680    -3.4900     1.0640 n8         1 MJU      -0.993200
      2 C17          5.2140    -2.3070     0.2350 c5         1 MJU       0.137500
      3 C16          4.7810    -2.4790    -1.2430 c5         1 MJU      -0.095400
      4 C15          3.2580    -2.2010    -1.1570 c5         1 MJU       0.237800
      5 C18          4.4550    -0.9770     0.6000 c5         1 MJU       0.226800
      6 N14          3.2240    -1.0280    -0.2450 nh         1 MJU      -0.758300
      7 C10          2.0220    -0.4570     0.2070 ca         1 MJU       0.461900
      8 C7           1.8230     0.9230     0.4220 cp         1 MJU      -0.252000
      9 C3           2.6360     2.1090     0.1480 cp         1 MJU      -0.035000
     10 C4           3.8600     2.2970    -0.5260 ca         1 MJU      -0.081000
     11 C5           4.3640     3.6110    -0.6550 ca         1 MJU      -0.133000
     12 C6           3.6430     4.7180    -0.1420 ca         1 MJU      -0.091000
     13 C1           2.3980     4.5270     0.4930 ca         1 MJU      -0.127000
     14 N11          1.0370    -1.3280     0.5100 nb         1 MJU      -0.296000
     15 C12         -0.1070    -0.8300     1.0350 ca         1 MJU       0.299300
     16 N13         -0.3620     0.4700     1.3120 nb         1 MJU      -0.259000
     17 C8           0.6170     1.3270     0.9970 ca         1 MJU       0.207500
     18 N9           0.7290     2.7170     1.1250 na         1 MJU      -0.321300
     19 C2           1.9340     3.2140     0.6120 ca         1 MJU      -0.025200
     20 S20         -1.3920    -2.0150     1.4170 ss         1 MJU      -0.078300
     21 C21         -2.7880    -1.2690     0.5750 ca         1 MJU      -0.185000
     22 C26         -2.6700    -0.7660    -0.7300 ca         1 MJU       0.152900
     23 N25         -3.6980    -0.1990    -1.3920 nb         1 MJU      -0.114000
     24 C24         -4.9120    -0.0990    -0.8020 ca         1 MJU       0.021000
     25 N27         -5.9440     0.4720    -1.4680 nb         1 MJU      -0.079000
     26 C28         -7.1400     0.5540    -0.8520 ca         1 MJU       0.050900
     27 C29         -7.3340     0.0660     0.4490 ca         1 MJU       0.286900
     28 N30         -6.3270    -0.5090     1.1440 nb         1 MJU      -0.609000
     29 C23         -5.1210    -0.5940     0.5290 ca         1 MJU       0.165000
     30 C22         -4.0370    -1.1840     1.2070 ca         1 MJU       0.013000
     31 H1           5.4430    -4.2890     0.7690 hn         1 MJU       0.399000
     32 H2           5.1700    -3.3260     2.0320 hn         1 MJU       0.399000
     33 H4           6.3020    -2.1700     0.3190 h1         1 MJU       0.035700
     34 H5           5.2790    -1.7460    -1.8890 hc         1 MJU       0.056200
     35 H6           5.0020    -3.4730    -1.6460 hc         1 MJU       0.056200
     36 H7           2.8300    -1.9780    -2.1440 h1         1 MJU       0.067700
     37 H8           2.7220    -3.0630    -0.7330 h1         1 MJU       0.067700
     38 H9           4.2230    -0.9270     1.6730 h1         1 MJU       0.057700
     39 H10          5.0750    -0.1060     0.3550 h1         1 MJU       0.057700
     40 H11          4.3960     1.4600    -0.9600 ha         1 MJU       0.109000
     41 H12          5.3100     3.7750    -1.1660 ha         1 MJU       0.111000
     42 H13          4.0420     5.7230    -0.2580 ha         1 MJU       0.114000
     43 H14          1.8180     5.3690     0.8650 ha         1 MJU       0.119000
     44 H15          0.0050     3.2950     1.5350 hn         1 MJU       0.368000
     45 H16         -1.7250    -0.8160    -1.2680 h4         1 MJU       0.038100
     46 H17         -7.9520     1.0170    -1.4100 h4         1 MJU       0.033100
     47 H18         -8.3030     0.1360     0.9400 h4         1 MJU       0.033100
     48 H19         -4.1710    -1.5660     2.2160 ha         1 MJU       0.149000
@<TRIPOS>BOND
     1     1     2 1   
     2     1    31 1   
     3     1    32 1   
     4     2     3 1   
     5     2     5 1   
     6     2    33 1   
     7     3     4 1   
     8     3    34 1   
     9     3    35 1   
    10     4     6 1   
    11     4    36 1   
    12     4    37 1   
    13     5     6 1   
    14     5    38 1   
    15     5    39 1   
    16     6     7 1   
    17     7     8 ar  
    18     7    14 ar  
    19     8     9 1   
    20     8    17 ar  
    21     9    10 ar  
    22     9    19 ar  
    23    10    11 ar  
    24    10    40 1   
    25    11    12 ar  
    26    11    41 1   
    27    12    13 ar  
    28    12    42 1   
    29    13    19 ar  
    30    13    43 1   
    31    14    15 ar  
    32    15    16 ar  
    33    15    20 1   
    34    16    17 ar  
    35    17    18 1   
    36    18    19 1   
    37    18    44 1   
    38    20    21 1   
    39    21    22 ar  
    40    21    30 ar  
    41    22    23 ar  
    42    22    45 1   
    43    23    24 ar  
    44    24    25 ar  
    45    24    29 ar  
    46    25    26 ar  
    47    26    27 ar  
    48    26    46 1   
    49    27    28 ar  
    50    27    47 1   
    51    28    29 ar  
    52    29    30 ar  
    53    30    48 1   
@<TRIPOS>SUBSTRUCTURE
     1 MJU         1 TEMP              0 ****  ****    0 ROOT
