@<TRIPOS>MOLECULE
MJU
   48    53     1     0     0
SMALL
abcg2


@<TRIPOS>ATOM
      1 N19          5.0190    -2.5360     1.7210 n8         1 MJU      -0.993200
      2 C17          5.3940    -2.0680     0.3970 c5         1 MJU       0.137500
      3 C16          4.8750    -3.0350    -0.6600 c5         1 MJU      -0.095400
      4 C15          3.3830    -2.7370    -0.7080 c5         1 MJU       0.237800
      5 C18          4.6060    -0.8070     0.0580 c5         1 MJU       0.226800
      6 N14          3.3170    -1.3100    -0.3890 nh         1 MJU      -0.758300
      7 C10          2.1430    -0.6820    -0.2790 ca         1 MJU       0.461900
      8 C7           1.9370     0.7010    -0.0210 cp         1 MJU      -0.252000
      9 C3           2.6870     1.9410     0.0820 cp         1 MJU      -0.035000
     10 C4           4.0110     2.3490    -0.1070 ca         1 MJU      -0.081000
     11 C5           4.3540     3.6800     0.0610 ca         1 MJU      -0.133000
     12 C6           3.3990     4.6380     0.4080 ca         1 MJU      -0.091000
     13 C1           2.0740     4.2780     0.5760 ca         1 MJU      -0.127000
     14 N11          1.0630    -1.4710    -0.4370 nb         1 MJU      -0.296000
     15 C12         -0.1370    -0.9700    -0.2430 ca         1 MJU       0.299300
     16 N13         -0.4710     0.2490     0.1090 nb         1 MJU      -0.259000
     17 C8           0.5890     1.0520     0.1900 ca         1 MJU       0.207500
     18 N9           0.4950     2.3690     0.4690 na         1 MJU      -0.321300
     19 C2           1.7400     2.9420     0.4010 ca         1 MJU      -0.025200
     20 S20         -1.4130    -2.1780    -0.4810 ss         1 MJU      -0.078300
     21 C21         -2.8650    -1.1830    -0.4260 ca         1 MJU      -0.185000
     22 C26         -3.0790    -0.1840    -1.4120 ca         1 MJU       0.152900
     23 N25         -4.1490     0.5520    -1.4810 nb         1 MJU      -0.114000
     24 C24         -5.1240     0.3440    -0.5710 ca         1 MJU       0.021000
     25 N27         -6.2250     1.1140    -0.6700 nb         1 MJU      -0.079000
     26 C28         -7.1680     0.9080     0.2070 ca         1 MJU       0.050900
     27 C29         -7.0580    -0.0720     1.2220 ca         1 MJU       0.286900
     28 N30         -6.0040    -0.8300     1.3390 nb         1 MJU      -0.609000
     29 C23         -5.0160    -0.6350     0.4410 ca         1 MJU       0.165000
     30 C22         -3.8370    -1.4090     0.5040 ca         1 MJU       0.013000
     31 H1           5.4940    -3.4080     1.9170 hn         1 MJU       0.399000
     32 H2           5.3460    -1.8800     2.4200 hn         1 MJU       0.399000
     33 H4           6.4680    -1.8790     0.2800 h1         1 MJU       0.035700
     34 H5           5.3430    -2.8120    -1.6210 hc         1 MJU       0.056200
     35 H6           5.0820    -4.0790    -0.4240 hc         1 MJU       0.056200
     36 H7           2.9420    -2.9420    -1.6830 h1         1 MJU       0.067700
     37 H8           2.8340    -3.3220     0.0320 h1         1 MJU       0.067700
     38 H9           4.5010    -0.1450     0.9170 h1         1 MJU       0.057700
     39 H10          5.1170    -0.2650    -0.7420 h1         1 MJU       0.057700
     40 H11          4.7810     1.6530    -0.3960 ha         1 MJU       0.109000
     41 H12          5.3830     3.9800    -0.0880 ha         1 MJU       0.111000
     42 H13          3.6920     5.6720     0.5340 ha         1 MJU       0.114000
     43 H14          1.3180     5.0120     0.8240 ha         1 MJU       0.119000
     44 H15         -0.3700     2.8570     0.6420 hn         1 MJU       0.368000
     45 H16         -2.3160    -0.0160    -2.1640 h4         1 MJU       0.038100
     46 H17         -8.0620     1.5170     0.1430 h4         1 MJU       0.033100
     47 H18         -7.8660    -0.2090     1.9300 h4         1 MJU       0.033100
     48 H19         -3.7310    -2.1560     1.2810 ha         1 MJU       0.149000
@<TRIPOS>BOND
     1     1     2 1   
     2     1    31 1   
     3     1    32 1   
     4     2     3 1   
     5     2     5 1   
     6     2    33 1   
     7     3     4 1   
     8     3    34 1   
     9     3    35 1   
    10     4     6 1   
    11     4    36 1   
    12     4    37 1   
    13     5     6 1   
    14     5    38 1   
    15     5    39 1   
    16     6     7 1   
    17     7     8 ar  
    18     7    14 ar  
    19     8     9 1   
    20     8    17 ar  
    21     9    10 ar  
    22     9    19 ar  
    23    10    11 ar  
    24    10    40 1   
    25    11    12 ar  
    26    11    41 1   
    27    12    13 ar  
    28    12    42 1   
    29    13    19 ar  
    30    13    43 1   
    31    14    15 ar  
    32    15    16 ar  
    33    15    20 1   
    34    16    17 ar  
    35    17    18 1   
    36    18    19 1   
    37    18    44 1   
    38    20    21 1   
    39    21    22 ar  
    40    21    30 ar  
    41    22    23 ar  
    42    22    45 1   
    43    23    24 ar  
    44    24    25 ar  
    45    24    29 ar  
    46    25    26 ar  
    47    26    27 ar  
    48    26    46 1   
    49    27    28 ar  
    50    27    47 1   
    51    28    29 ar  
    52    29    30 ar  
    53    30    48 1   
@<TRIPOS>SUBSTRUCTURE
     1 MJU         1 TEMP              0 ****  ****    0 ROOT
