@<TRIPOS>MOLECULE
MJV
   51    54     1     0     0
SMALL
No Charge or Current Charge


@<TRIPOS>ATOM
      1 C01          7.2860     0.0890     0.0890 ca         1 MJV      -0.108000
      2 C02          5.9780     0.5670    -0.0320 ca         1 MJV       0.013600
      3 C04          4.1320     1.9340    -0.2780 c          1 MJV       0.594000
      4 C07          2.3290     0.1640     0.2100 c6         1 MJV       0.140700
      5 C08          1.5500     0.7580     1.4020 c6         1 MJV      -0.093900
      6 C09          0.1190     0.1800     1.4520 c6         1 MJV       0.170800
      7 C12         -2.9350     0.3650    -0.9210 c3         1 MJV       0.103000
      8 C14         -5.2300     0.5850     0.1090 c          1 MJV       0.613700
      9 C16         -6.6260    -0.0010     0.1810 ca         1 MJV      -0.169600
     10 C17         -7.5840     0.5990     1.0330 ca         1 MJV      -0.046500
     11 C18         -8.8870     0.0810     1.1240 ca         1 MJV      -0.162500
     12 C19         -9.2490    -1.0400     0.3670 ca         1 MJV       0.192000
     13 C21         -8.3160    -1.6480    -0.4820 ca         1 MJV      -0.162500
     14 C22         -7.0090    -1.1360    -0.5790 ca         1 MJV      -0.046500
     15 C23          0.1200    -0.2200    -0.9790 c6         1 MJV       0.170800
     16 C24          1.5500     0.3500    -1.1110 c6         1 MJV      -0.093900
     17 C25          4.8680    -0.2000     0.2760 ca         1 MJV       0.007600
     18 C26          5.0120    -1.4740     0.8450 ca         1 MJV      -0.104000
     19 C27          6.3210    -1.9950     0.9660 ca         1 MJV      -0.105000
     20 C28          7.4460    -1.2240     0.5800 ca         1 MJV       0.120000
     21 F20        -10.5020    -1.5370     0.4560 f          1 MJV      -0.174000
     22 N03          5.4900     1.8290    -0.3760 ns         1 MJV      -0.503600
     23 N06          3.7260     0.6550     0.1540 n          1 MJV      -0.293000
     24 N10         -0.6110     0.3930     0.1700 n3         1 MJV      -0.715600
     25 N13         -4.3380    -0.0360    -0.7390 ns         1 MJV      -0.507900
     26 O05          3.4540     2.9170    -0.5210 o          1 MJV      -0.554000
     27 O15         -4.9020     1.5640     0.7660 o          1 MJV      -0.594100
     28 Cl           9.0630    -1.8920     0.7620 cl         1 MJV      -0.200000
     29 H1           8.1440     0.7070    -0.1610 ha         1 MJV       0.138000
     30 H2           2.3760    -0.9200     0.3820 h1         1 MJV       0.049700
     31 H3           2.0730     0.5390     2.3420 hc         1 MJV       0.067950
     32 H4           1.5000     1.8520     1.3120 hc         1 MJV       0.067950
     33 H5           0.1740    -0.8940     1.6830 h1         1 MJV       0.031950
     34 H6          -0.4210     0.6600     2.2820 h1         1 MJV       0.031950
     35 H7          -2.4720     0.3890     1.1800 h1         1 MJV       0.039200
     36 H8          -2.0770    -1.1340     0.3840 h1         1 MJV       0.039200
     37 H9          -2.8890     1.4540    -1.0540 h1         1 MJV       0.062200
     38 H10         -2.5670    -0.1020    -1.8430 h1         1 MJV       0.062200
     39 H11         -7.3200     1.4710     1.6290 ha         1 MJV       0.127000
     40 H12         -9.6160     0.5480     1.7810 ha         1 MJV       0.136500
     41 H13         -8.6050    -2.5180    -1.0660 ha         1 MJV       0.136500
     42 H14         -6.3120    -1.6330    -1.2470 ha         1 MJV       0.127000
     43 H15         -0.4070    -0.0290    -1.9250 h1         1 MJV       0.031950
     44 H16          0.1770    -1.3120    -0.8550 h1         1 MJV       0.031950
     45 H17          1.4840     1.4130    -1.3760 hc         1 MJV       0.067950
     46 H18          2.0760    -0.1520    -1.9330 hc         1 MJV       0.067950
     47 H19          4.1520    -2.0500     1.1770 ha         1 MJV       0.126000
     48 H20          6.4690    -2.9910     1.3760 ha         1 MJV       0.132000
     49 H21          6.0710     2.6120    -0.6590 hn         1 MJV       0.471000
     50 H23         -4.6780    -0.8350    -1.2570 hn         1 MJV       0.314500
     51 C11         -2.0300    -0.0420     0.2710 c3         1 MJV       0.148800
@<TRIPOS>BOND
     1     1     2 ar  
     2     1    20 ar  
     3     1    29 1   
     4     2    17 ar  
     5     2    22 1   
     6     3    22 1   
     7     3    23 1   
     8     3    26 2   
     9     4     5 1   
    10     4    16 1   
    11     4    23 1   
    12     4    30 1   
    13     5     6 1   
    14     5    31 1   
    15     5    32 1   
    16     6    24 1   
    17     6    33 1   
    18     6    34 1   
    19     7    25 1   
    20     7    37 1   
    21     7    38 1   
    22     7    51 1   
    23     8     9 1   
    24     8    25 1   
    25     8    27 2   
    26     9    10 ar  
    27     9    14 ar  
    28    10    11 ar  
    29    10    39 1   
    30    11    12 ar  
    31    11    40 1   
    32    12    13 ar  
    33    12    21 1   
    34    13    14 ar  
    35    13    41 1   
    36    14    42 1   
    37    15    16 1   
    38    15    24 1   
    39    15    43 1   
    40    15    44 1   
    41    16    45 1   
    42    16    46 1   
    43    17    18 ar  
    44    17    23 1   
    45    18    19 ar  
    46    18    47 1   
    47    19    20 ar  
    48    19    48 1   
    49    20    28 1   
    50    22    49 1   
    51    24    51 1   
    52    25    50 1   
    53    35    51 1   
    54    36    51 1   
@<TRIPOS>SUBSTRUCTURE
     1 MJV         1 TEMP              0 ****  ****    0 ROOT
