@<TRIPOS>MOLECULE
MJV
   51    54     1     0     0
SMALL
abcg2


@<TRIPOS>ATOM
      1 C01          7.1640     0.3200     0.2080 ca         1 MJV      -0.108000
      2 C02          5.8520     0.7410     0.1420 ca         1 MJV       0.013600
      3 C04          3.9330     1.9200    -0.0470 c          1 MJV       0.594000
      4 C07          2.2670     0.0550     0.2320 c6         1 MJV       0.140700
      5 C08          1.4700     0.6070     1.4080 c6         1 MJV      -0.093900
      6 C09          0.0840    -0.0230     1.4310 c6         1 MJV       0.170800
      7 C12         -2.8650     0.3660    -0.8390 c3         1 MJV       0.103000
      8 C14         -5.1110     0.6240     0.1080 c          1 MJV       0.613700
      9 C16         -6.4970     0.0700     0.1710 ca         1 MJV      -0.169600
     10 C17         -7.5370     0.9390     0.4950 ca         1 MJV      -0.046500
     11 C18         -8.8440     0.4870     0.5760 ca         1 MJV      -0.162500
     12 C19         -9.0930    -0.8540     0.3500 ca         1 MJV       0.192000
     13 C21         -8.0850    -1.7500     0.0500 ca         1 MJV      -0.162500
     14 C22         -6.7850    -1.2770    -0.0420 ca         1 MJV      -0.046500
     15 C23          0.1100    -0.3890    -0.9300 c6         1 MJV       0.170800
     16 C24          1.4930     0.2310    -1.0680 c6         1 MJV      -0.093900
     17 C25          4.7780    -0.1470     0.2810 ca         1 MJV       0.007600
     18 C26          5.0020    -1.4930     0.4950 ca         1 MJV      -0.104000
     19 C27          6.3200    -1.9370     0.5640 ca         1 MJV      -0.105000
     20 C28          7.3700    -1.0390     0.4220 ca         1 MJV       0.120000
     21 F20        -10.3540    -1.3000     0.4290 f          1 MJV      -0.174000
     22 N03          5.3050     1.9830    -0.0540 ns         1 MJV      -0.503600
     23 N06          3.6170     0.5940     0.1630 n          1 MJV      -0.293000
     24 N10         -0.6190     0.2010     0.1800 n3         1 MJV      -0.715600
     25 N13         -4.2520    -0.0170    -0.7010 ns         1 MJV      -0.507900
     26 O05          3.1630     2.8510    -0.1960 o          1 MJV      -0.554000
     27 O15         -4.8020     1.6180     0.7520 o          1 MJV      -0.594100
     28 CL           9.0010    -1.6270     0.5110 cl         1 MJV      -0.200000
     29 H1           7.9890     1.0100     0.1000 ha         1 MJV       0.138000
     30 H2           2.3920    -1.0190     0.3960 h1         1 MJV       0.049700
     31 H3           1.9820     0.3860     2.3470 hc         1 MJV       0.067950
     32 H4           1.3740     1.6900     1.3250 hc         1 MJV       0.067950
     33 H5           0.1760    -1.1000     1.6580 h1         1 MJV       0.031950
     34 H6          -0.4950     0.4200     2.2440 h1         1 MJV       0.031950
     35 H7          -2.3980     0.0570     1.2190 h1         1 MJV       0.039200
     36 H8          -2.0780    -1.3510     0.2110 h1         1 MJV       0.039200
     37 H9          -2.7770     1.4520    -0.8030 h1         1 MJV       0.062200
     38 H10         -2.5450     0.0490    -1.8310 h1         1 MJV       0.062200
     39 H11         -7.3290     1.9850     0.6750 ha         1 MJV       0.127000
     40 H12         -9.6530     1.1650     0.8120 ha         1 MJV       0.136500
     41 H13         -8.3070    -2.7970    -0.1040 ha         1 MJV       0.136500
     42 H14         -5.9980    -1.9880    -0.2570 ha         1 MJV       0.127000
     43 H15         -0.4390    -0.2270    -1.8580 h1         1 MJV       0.031950
     44 H16          0.2060    -1.4840    -0.8070 h1         1 MJV       0.031950
     45 H17          1.3930     1.2900    -1.3080 hc         1 MJV       0.067950
     46 H18          2.0270    -0.2490    -1.8910 hc         1 MJV       0.067950
     47 H19          4.1920    -2.2010     0.6050 ha         1 MJV       0.126000
     48 H20          6.5210    -2.9860     0.7280 ha         1 MJV       0.132000
     49 H21          5.8130     2.8410    -0.1980 hn         1 MJV       0.471000
     50 H23         -4.5810    -0.7840    -1.2620 hn         1 MJV       0.314500
     51 C11         -1.9930    -0.2520     0.2530 c3         1 MJV       0.148800
@<TRIPOS>BOND
     1     1     2 ar  
     2     1    20 ar  
     3     1    29 1   
     4     2    17 ar  
     5     2    22 1   
     6     3    22 1   
     7     3    23 1   
     8     3    26 2   
     9     4     5 1   
    10     4    16 1   
    11     4    23 1   
    12     4    30 1   
    13     5     6 1   
    14     5    31 1   
    15     5    32 1   
    16     6    24 1   
    17     6    33 1   
    18     6    34 1   
    19     7    25 1   
    20     7    37 1   
    21     7    38 1   
    22     7    51 1   
    23     8     9 1   
    24     8    25 1   
    25     8    27 2   
    26     9    10 ar  
    27     9    14 ar  
    28    10    11 ar  
    29    10    39 1   
    30    11    12 ar  
    31    11    40 1   
    32    12    13 ar  
    33    12    21 1   
    34    13    14 ar  
    35    13    41 1   
    36    14    42 1   
    37    15    16 1   
    38    15    24 1   
    39    15    43 1   
    40    15    44 1   
    41    16    45 1   
    42    16    46 1   
    43    17    18 ar  
    44    17    23 1   
    45    18    19 ar  
    46    18    47 1   
    47    19    20 ar  
    48    19    48 1   
    49    20    28 1   
    50    22    49 1   
    51    24    51 1   
    52    25    50 1   
    53    35    51 1   
    54    36    51 1   
@<TRIPOS>SUBSTRUCTURE
     1 MJV         1 TEMP              0 ****  ****    0 ROOT
