@<TRIPOS>MOLECULE
MJW
   28    29     1     0     0
SMALL
bcc


@<TRIPOS>ATOM
      1 N1         -12.3790   -14.3860    90.0570 nv         1 MJW      -0.813200
      2 C4          -9.3060   -12.1300    92.4310 ca         1 MJW      -0.091300
      3 C5          -8.5020   -13.2300    92.7050 ca         1 MJW      -0.106500
      4 C6          -7.1170   -13.1280    92.6410 ca         1 MJW      -0.132000
      5 C7         -10.7990   -12.2370    92.4890 c3         1 MJW       0.180700
      6 C8         -12.6670   -12.2030    91.0580 ca         1 MJW       0.026100
      7 C10        -14.8720   -11.2720    91.3480 ca         1 MJW      -0.165000
      8 C13        -13.2040   -13.3830    90.5190 ca         1 MJW       0.146600
      9 C1          -6.5260   -11.9230    92.2910 ca         1 MJW      -0.120000
     10 C2          -7.3240   -10.8190    92.0090 ca         1 MJW      -0.132000
     11 C3          -8.7050   -10.9230    92.0790 ca         1 MJW      -0.106500
     12 O1         -11.3040   -12.1070    91.1590 os         1 MJW      -0.334900
     13 C9         -13.4920   -11.1660    91.4650 ca         1 MJW      -0.112000
     14 C11        -15.4160   -12.4350    90.8190 ca         1 MJW      -0.093000
     15 C12        -14.5960   -13.4730    90.4050 ca         1 MJW      -0.192000
     16 H1         -11.4430   -14.3890    90.4260 hn         1 MJW       0.397300
     17 H2         -12.7840   -15.3080    90.0470 hn         1 MJW       0.397300
     18 H3          -8.9580   -14.1740    92.9790 ha         1 MJW       0.131000
     19 H4          -6.5020   -13.9910    92.8630 ha         1 MJW       0.131500
     20 H5         -11.2160   -11.4500    93.1270 h1         1 MJW       0.033700
     21 H6         -11.1000   -13.1990    92.9190 h1         1 MJW       0.033700
     22 H7         -15.5080   -10.4570    91.6660 ha         1 MJW       0.133000
     23 H8          -5.4480   -11.8410    92.2390 ha         1 MJW       0.130000
     24 H9          -6.8680    -9.8760    91.7370 ha         1 MJW       0.131500
     25 H10         -9.3190   -10.0560    91.8660 ha         1 MJW       0.131000
     26 H11        -13.0480   -10.2640    91.8680 ha         1 MJW       0.135000
     27 H12        -16.4890   -12.5370    90.7200 ha         1 MJW       0.129000
     28 H13        -15.0330   -14.3730    89.9900 ha         1 MJW       0.131000
@<TRIPOS>BOND
     1     1     8 1   
     2     1    16 1   
     3     1    17 1   
     4     2     3 ar  
     5     2     5 1   
     6     2    11 ar  
     7     3     4 ar  
     8     3    18 1   
     9     4     9 ar  
    10     4    19 1   
    11     5    12 1   
    12     5    20 1   
    13     5    21 1   
    14     6     8 ar  
    15     6    12 1   
    16     6    13 ar  
    17     7    13 ar  
    18     7    14 ar  
    19     7    22 1   
    20     8    15 ar  
    21     9    10 ar  
    22     9    23 1   
    23    10    11 ar  
    24    10    24 1   
    25    11    25 1   
    26    13    26 1   
    27    14    15 ar  
    28    14    27 1   
    29    15    28 1   
@<TRIPOS>SUBSTRUCTURE
     1 MJW         1 TEMP              0 ****  ****    0 ROOT
