@<TRIPOS>MOLECULE
MJW
   28    29     1     0     0
SMALL
No Charge or Current Charge


@<TRIPOS>ATOM
      1 N1         -12.4040   -14.0110    89.4050 nv         1 MJW      -1.062000
      2 C4          -9.2430   -11.8550    92.4710 ca         1 MJW      -0.091300
      3 C5          -8.6130   -12.8900    93.1910 ca         1 MJW      -0.088500
      4 C6          -7.2170   -13.0500    93.1270 ca         1 MJW      -0.114000
      5 C7         -10.7540   -11.6800    92.5410 c3         1 MJW       0.203900
      6 C8         -12.7290   -12.5070    91.2910 ca         1 MJW       0.026100
      7 C10        -15.0130   -11.8690    91.8880 ca         1 MJW      -0.147000
      8 C13        -13.2440   -13.3000    90.2310 ca         1 MJW       0.285000
      9 C1          -6.4430   -12.1770    92.3450 ca         1 MJW      -0.102000
     10 C2          -7.0660   -11.1440    91.6240 ca         1 MJW      -0.114000
     11 C3          -8.4620   -10.9830    91.6860 ca         1 MJW      -0.088500
     12 O1         -11.3550   -12.4580    91.4910 os         1 MJW      -0.358100
     13 C9         -13.6280   -11.7910    92.1180 ca         1 MJW      -0.094000
     14 C11        -15.5140   -12.6570    90.8400 ca         1 MJW      -0.075000
     15 C12        -14.6290   -13.3700    90.0150 ca         1 MJW      -0.174000
     16 H1         -11.4190   -14.0660    89.6570 hn         1 MJW       0.452500
     17 H2         -12.7780   -14.7350    88.7960 hn         1 MJW       0.452500
     18 H3          -9.2050   -13.5720    93.7970 ha         1 MJW       0.113000
     19 H4          -6.7360   -13.8510    93.6850 ha         1 MJW       0.113500
     20 H5         -11.0040   -10.6170    92.4260 h1         1 MJW       0.033700
     21 H6         -11.1140   -12.0130    93.5240 h1         1 MJW       0.033700
     22 H7         -15.7000   -11.3180    92.5270 ha         1 MJW       0.115000
     23 H8          -5.3630   -12.3010    92.2960 ha         1 MJW       0.112000
     24 H9          -6.4680   -10.4680    91.0160 ha         1 MJW       0.113500
     25 H10         -8.9370   -10.1820    91.1240 ha         1 MJW       0.113000
     26 H11        -13.2740   -11.1740    92.9390 ha         1 MJW       0.117000
     27 H12        -16.5870   -12.7140    90.6670 ha         1 MJW       0.111000
     28 H13        -15.0250   -13.9770    89.2040 ha         1 MJW       0.113000
@<TRIPOS>BOND
     1     1     8 1   
     2     1    16 1   
     3     1    17 1   
     4     2     3 ar  
     5     2     5 1   
     6     2    11 ar  
     7     3     4 ar  
     8     3    18 1   
     9     4     9 ar  
    10     4    19 1   
    11     5    12 1   
    12     5    20 1   
    13     5    21 1   
    14     6     8 ar  
    15     6    12 1   
    16     6    13 ar  
    17     7    13 ar  
    18     7    14 ar  
    19     7    22 1   
    20     8    15 ar  
    21     9    10 ar  
    22     9    23 1   
    23    10    11 ar  
    24    10    24 1   
    25    11    25 1   
    26    13    26 1   
    27    14    15 ar  
    28    14    27 1   
    29    15    28 1   
@<TRIPOS>SUBSTRUCTURE
     1 MJW         1 TEMP              0 ****  ****    0 ROOT
