@<TRIPOS>MOLECULE
MJX
   51    53     1     0     0
SMALL
No Charge or Current Charge


@<TRIPOS>ATOM
      1 N1          54.0880   112.9600    71.9690 n3         1 MJX      -0.671600
      2 C7          55.5140   114.7390    70.6320 c          1 MJX       0.719000
      3 O1          56.4440   115.1520    71.3150 o          1 MJX      -0.727500
      4 C8          51.7750   108.6150    73.9720 c6         1 MJX       0.156300
      5 C9          51.7740   107.2380    74.7120 c6         1 MJX       0.200300
      6 C17         50.3070   104.5270    74.4560 ca         1 MJX      -0.189500
      7 C18         50.3300   100.7890    75.2360 ce         1 MJX       0.671800
      8 N2          53.0280   108.8770    73.1810 n3         1 MJX      -0.708600
      9 N3          52.0570   106.0920    73.7970 nh         1 MJX      -0.789400
     10 O2          55.5700   114.6520    69.4110 o          1 MJX      -0.727500
     11 C10         53.2710   106.3280    72.9580 c6         1 MJX       0.200300
     12 C11         53.2500   107.7190    72.2450 c6         1 MJX       0.156300
     13 C12         51.6550   104.7830    74.1540 ca         1 MJX       0.338000
     14 C13         52.5710   103.7170    74.2030 ca         1 MJX      -0.189500
     15 C14         52.1520   102.4230    74.5600 ca         1 MJX      -0.041500
     16 C3          54.2950   111.8690    70.9840 c6         1 MJX       0.168300
     17 C4          52.8170   112.7640    72.7100 c6         1 MJX       0.168300
     18 C5          52.7790   111.4020    73.4420 c6         1 MJX      -0.074400
     19 C6          54.1780   114.3250    71.3510 c3         1 MJX       0.019800
     20 C1          52.9970   110.2050    72.4650 c6         1 MJX       0.180500
     21 C2          54.3040   110.4760    71.6570 c6         1 MJX      -0.074400
     22 C16         49.8800   103.2360    74.8110 ca         1 MJX      -0.041500
     23 C15         50.8010   102.1670    74.8880 ca         1 MJX      -0.204900
     24 N4          49.1150   100.4320    75.1790 n2         1 MJX      -0.838100
     25 N5          51.2300    99.9250    75.7470 nv         1 MJX      -1.074200
     26 H3          51.6290   109.3810    74.7450 h1         1 MJX       0.041200
     27 H4          50.8970   108.6530    73.3100 h1         1 MJX       0.041200
     28 H5          50.7990   107.1130    75.2040 h1         1 MJX       0.041950
     29 H6          52.5330   107.2660    75.5080 h1         1 MJX       0.041950
     30 H7          49.5790   105.3300    74.4010 ha         1 MJX       0.115500
     31 H9          53.3560   105.5490    72.1860 h1         1 MJX       0.041950
     32 H10         54.1720   106.2680    73.5860 h1         1 MJX       0.041950
     33 H11         54.2100   107.8120    71.7210 h1         1 MJX       0.041200
     34 H12         52.4630   107.7020    71.4760 h1         1 MJX       0.041200
     35 H13         53.6190   103.8810    73.9720 ha         1 MJX       0.115500
     36 H14         52.8880   101.6220    74.5680 ha         1 MJX       0.117500
     37 H15         55.2530   112.0030    70.4600 h1         1 MJX       0.026200
     38 H16         53.5030   111.8920    70.2200 h1         1 MJX       0.026200
     39 H17         52.6860   113.5640    73.4530 h1         1 MJX       0.026200
     40 H18         51.9630   112.8220    72.0190 h1         1 MJX       0.026200
     41 H19         51.8060   111.3320    73.9410 hc         1 MJX       0.040950
     42 H20         53.5440   111.3870    74.2300 hc         1 MJX       0.040950
     43 H21         53.9990   115.0790    72.1300 h1         1 MJX       0.010700
     44 H22         53.3660   114.4420    70.6200 h1         1 MJX       0.010700
     45 H23         52.1600   110.2040    71.7500 h1         1 MJX       0.012700
     46 H24         54.4360   109.7340    70.8610 hc         1 MJX       0.040950
     47 H25         55.1770   110.3930    72.3190 hc         1 MJX       0.040950
     48 H26         48.8270   103.0720    75.0330 ha         1 MJX       0.117500
     49 H27         49.0800    99.4130    75.2890 hn         1 MJX       0.361400
     50 H28         52.0930   100.3520    76.0640 hn         1 MJX       0.454500
     51 H29         50.8610    99.2020    76.3520 hn         1 MJX       0.454500
@<TRIPOS>BOND
     1     1    16 1   
     2     1    17 1   
     3     1    19 1   
     4     2     3 1   
     5     2    10 1   
     6     2    19 1   
     7     4     5 1   
     8     4     8 1   
     9     4    26 1   
    10     4    27 1   
    11     5     9 1   
    12     5    28 1   
    13     5    29 1   
    14     6    13 ar  
    15     6    22 ar  
    16     6    30 1   
    17     7    23 1   
    18     7    24 2   
    19     7    25 1   
    20     8    12 1   
    21     8    20 1   
    22     9    11 1   
    23     9    13 1   
    24    11    12 1   
    25    11    31 1   
    26    11    32 1   
    27    12    33 1   
    28    12    34 1   
    29    13    14 ar  
    30    14    15 ar  
    31    14    35 1   
    32    15    23 ar  
    33    15    36 1   
    34    16    21 1   
    35    16    37 1   
    36    16    38 1   
    37    17    18 1   
    38    17    39 1   
    39    17    40 1   
    40    18    20 1   
    41    18    41 1   
    42    18    42 1   
    43    19    43 1   
    44    19    44 1   
    45    20    21 1   
    46    20    45 1   
    47    21    46 1   
    48    21    47 1   
    49    22    23 ar  
    50    22    48 1   
    51    24    49 1   
    52    25    50 1   
    53    25    51 1   
@<TRIPOS>SUBSTRUCTURE
     1 MJX         1 TEMP              0 ****  ****    0 ROOT
