@<TRIPOS>MOLECULE
MJX
   51    53     1     0     0
SMALL
abcg2


@<TRIPOS>ATOM
      1 N1          54.0850   112.8220    72.0060 n3         1 MJX      -0.671600
      2 C7          55.6350   114.5380    70.9620 c          1 MJX       0.719000
      3 O1          56.5950   113.9820    71.5260 o          1 MJX      -0.727500
      4 C8          51.6180   108.6300    73.7730 c6         1 MJX       0.156300
      5 C9          51.6130   107.3350    74.5620 c6         1 MJX       0.200300
      6 C17         50.4020   104.6580    74.7720 ca         1 MJX      -0.189500
      7 C18         50.4760   100.9270    75.3370 ce         1 MJX       0.671800
      8 N2          52.9010   108.8650    73.1340 n3         1 MJX      -0.708600
      9 N3          51.9540   106.2010    73.7200 nh         1 MJX      -0.789400
     10 O2          55.6860   115.4560    70.1180 o          1 MJX      -0.727500
     11 C10         53.2020   106.4180    73.0240 c6         1 MJX       0.200300
     12 C11         53.1900   107.7340    72.2700 c6         1 MJX       0.156300
     13 C12         51.6330   104.9240    74.1420 ca         1 MJX       0.338000
     14 C13         52.4840   103.8290    73.9330 ca         1 MJX      -0.189500
     15 C14         52.1170   102.5490    74.3150 ca         1 MJX      -0.041500
     16 C3          54.3610   111.7420    71.0820 c6         1 MJX       0.168300
     17 C4          52.7690   112.6480    72.5830 c6         1 MJX       0.168300
     18 C5          52.6370   111.3240    73.3210 c6         1 MJX      -0.074400
     19 C6          54.2050   114.1110    71.3610 c3         1 MJX       0.019800
     20 C1          52.9380   110.1360    72.4090 c6         1 MJX       0.180500
     21 C2          54.2980   110.3810    71.7550 c6         1 MJX      -0.074400
     22 C16         50.0500   103.3790    75.1470 ca         1 MJX      -0.041500
     23 C15         50.8980   102.2910    74.9330 ca         1 MJX      -0.204900
     24 N4          49.2270   100.6750    75.4550 n2         1 MJX      -0.838100
     25 N5          51.4910   100.0230    75.4990 nv         1 MJX      -1.074200
     26 H3          51.3960   109.4290    74.4790 h1         1 MJX       0.041200
     27 H4          50.7960   108.6070    73.0370 h1         1 MJX       0.041200
     28 H5          50.6210   107.2140    74.9900 h1         1 MJX       0.041950
     29 H6          52.3210   107.4150    75.3980 h1         1 MJX       0.041950
     30 H7          49.6930   105.4540    74.9520 ha         1 MJX       0.115500
     31 H9          53.3560   105.6300    72.2860 h1         1 MJX       0.041950
     32 H10         54.0590   106.3940    73.7140 h1         1 MJX       0.041950
     33 H11         54.1760   107.8430    71.8210 h1         1 MJX       0.041200
     34 H12         52.4630   107.6670    71.4410 h1         1 MJX       0.041200
     35 H13         53.4530   103.9580    73.4730 ha         1 MJX       0.115500
     36 H14         52.8110   101.7440    74.1070 ha         1 MJX       0.117500
     37 H15         55.3550   111.8810    70.6580 h1         1 MJX       0.026200
     38 H16         53.6500   111.7530    70.2330 h1         1 MJX       0.026200
     39 H17         52.5790   113.4650    73.2840 h1         1 MJX       0.026200
     40 H18         51.9770   112.7100    71.8130 h1         1 MJX       0.026200
     41 H19         51.6240   111.2760    73.7220 hc         1 MJX       0.040950
     42 H20         53.3250   111.3050    74.1720 hc         1 MJX       0.040950
     43 H21         53.8320   114.8720    72.0570 h1         1 MJX       0.010700
     44 H22         53.5530   114.1810    70.4730 h1         1 MJX       0.010700
     45 H23         52.1790   110.1290    71.6010 h1         1 MJX       0.012700
     46 H24         54.5150   109.6310    70.9940 hc         1 MJX       0.040950
     47 H25         55.0800   110.3040    72.5170 hc         1 MJX       0.040950
     48 H26         49.0890   103.2170    75.6170 ha         1 MJX       0.117500
     49 H27         49.0740    99.7200    75.7670 hn         1 MJX       0.361400
     50 H28         52.3890   100.3670    75.7970 hn         1 MJX       0.454500
     51 H29         51.2510    99.1350    75.9110 hn         1 MJX       0.454500
@<TRIPOS>BOND
     1     1    16 1   
     2     1    17 1   
     3     1    19 1   
     4     2     3 1   
     5     2    10 1   
     6     2    19 1   
     7     4     5 1   
     8     4     8 1   
     9     4    26 1   
    10     4    27 1   
    11     5     9 1   
    12     5    28 1   
    13     5    29 1   
    14     6    13 ar  
    15     6    22 ar  
    16     6    30 1   
    17     7    23 1   
    18     7    24 2   
    19     7    25 1   
    20     8    12 1   
    21     8    20 1   
    22     9    11 1   
    23     9    13 1   
    24    11    12 1   
    25    11    31 1   
    26    11    32 1   
    27    12    33 1   
    28    12    34 1   
    29    13    14 ar  
    30    14    15 ar  
    31    14    35 1   
    32    15    23 ar  
    33    15    36 1   
    34    16    21 1   
    35    16    37 1   
    36    16    38 1   
    37    17    18 1   
    38    17    39 1   
    39    17    40 1   
    40    18    20 1   
    41    18    41 1   
    42    18    42 1   
    43    19    43 1   
    44    19    44 1   
    45    20    21 1   
    46    20    45 1   
    47    21    46 1   
    48    21    47 1   
    49    22    23 ar  
    50    22    48 1   
    51    24    49 1   
    52    25    50 1   
    53    25    51 1   
@<TRIPOS>SUBSTRUCTURE
     1 MJX         1 TEMP              0 ****  ****    0 ROOT
