@<TRIPOS>MOLECULE
MJY
   57    60     1     0     0
SMALL
No Charge or Current Charge


@<TRIPOS>ATOM
      1 C15         -2.4220    -0.3110     1.7330 c6         1 MJY       0.175800
      2 C8           3.3480    -1.1450    -0.0030 ca         1 MJY      -0.139600
      3 C9           4.5560    -1.1770    -0.7400 ca         1 MJY      -0.076500
      4 C10          5.5240    -0.1710    -0.5800 ca         1 MJY      -0.093500
      5 C11          5.2990     0.8830     0.3170 ca         1 MJY      -0.005900
      6 C12          4.1070     0.9340     1.0550 ca         1 MJY      -0.093500
      7 C13          3.1360    -0.0710     0.8990 ca         1 MJY      -0.076500
      8 C14          0.2880    -4.4550     1.0110 c3         1 MJY      -0.102100
      9 C5          -1.2070    -2.3740     1.1470 c3         1 MJY       0.158800
     10 C3          -1.6400     0.9260    -0.7970 c6         1 MJY      -0.078400
     11 C4          -1.6050    -0.5990    -0.5530 c6         1 MJY       0.175800
     12 N2          -1.3650    -0.9150     0.8830 n3         1 MJY      -0.760600
     13 C1          -2.5340     3.2040    -0.0760 c          1 MJY       0.566000
     14 C18         -5.7830     0.6780     1.0970 ca         1 MJY      -0.122000
     15 C19         -6.6950    -0.3160     1.4920 ca         1 MJY      -0.078000
     16 C20         -6.8540    -1.4670     0.7020 ca         1 MJY      -0.158000
     17 C21         -6.1080    -1.6100    -0.4780 ca         1 MJY       0.184000
     18 C22         -5.2010    -0.6170    -0.8710 ca         1 MJY      -0.195000
     19 C16         -2.4940     1.2230     1.5440 c6         1 MJY      -0.078400
     20 C17         -5.0210     0.5220    -0.0750 ca         1 MJY       0.297000
     21 C2          -2.7110     1.6610     0.0610 c5         1 MJY       0.144200
     22 C23         -4.5710     2.7160    -1.1920 c5         1 MJY       0.372200
     23 C6           0.0140    -3.0420     0.4520 c3         1 MJY       0.114700
     24 F1          -6.2690    -2.7110    -1.2440 f          1 MJY      -0.177000
     25 N1          -3.6740     3.7020    -0.6370 ns         1 MJY      -0.511900
     26 N3           1.1880    -2.1730     0.5680 ns         1 MJY      -0.488900
     27 N4          -4.1100     1.5140    -0.4730 nh         1 MJY      -0.818400
     28 O1          -1.6070     3.9160     0.2900 o          1 MJY      -0.549000
     29 O2           2.4900    -3.1480    -1.0160 o          1 MJY      -0.610100
     30 Br1          6.6160     2.2530     0.5330 br         1 MJY      -0.097100
     31 H1          -3.3980    -0.7640     1.5080 h1         1 MJY       0.040200
     32 H2          -2.2170    -0.5180     2.7940 h1         1 MJY       0.040200
     33 H3           4.7490    -1.9870    -1.4410 ha         1 MJY       0.131000
     34 H4           6.4480    -0.2100    -1.1530 ha         1 MJY       0.138000
     35 H5           3.9330     1.7530     1.7500 ha         1 MJY       0.138000
     36 H6           2.2240     0.0050     1.4860 ha         1 MJY       0.131000
     37 H7          -0.6040    -5.0850     0.9150 hc         1 MJY       0.046700
     38 H8           1.1040    -4.9430     0.4670 hc         1 MJY       0.046700
     39 H9           0.5620    -4.4080     2.0720 hc         1 MJY       0.046700
     40 H10         -1.0890    -2.5230     2.2290 h1         1 MJY       0.042700
     41 H11         -2.1180    -2.9140     0.8520 h1         1 MJY       0.042700
     42 H12         -0.6470     1.3350    -0.5690 hc         1 MJY       0.063950
     43 H13         -1.8160     1.1250    -1.8620 hc         1 MJY       0.063950
     44 H14         -2.5480    -1.0500    -0.8910 h1         1 MJY       0.040200
     45 H15         -0.8090    -1.0210    -1.1820 h1         1 MJY       0.040200
     46 H17         -5.6620     1.5730     1.7010 ha         1 MJY       0.130000
     47 H18         -7.2760    -0.1930     2.4040 ha         1 MJY       0.121000
     48 H19         -7.5560    -2.2430     0.9970 ha         1 MJY       0.136000
     49 H20         -4.6370    -0.7310    -1.7900 ha         1 MJY       0.131000
     50 H21         -3.2800     1.6440     2.1820 hc         1 MJY       0.063950
     51 H22         -1.5520     1.6530     1.9100 hc         1 MJY       0.063950
     52 H23         -5.6180     2.9460    -0.9540 h2         1 MJY       0.042700
     53 H24         -0.2210    -3.1420    -0.6160 h1         1 MJY       0.053700
     54 H25          1.0850    -1.3560     1.1540 hn         1 MJY       0.335500
     55 H16         -4.4310     2.6070    -2.2740 h2         1 MJY       0.042700
     56 H26         -3.7380     4.6970    -0.8000 hn         1 MJY       0.341500
     57 C7           2.3250    -2.2470    -0.2040 c          1 MJY       0.608700
@<TRIPOS>BOND
     1     1    12 1   
     2     1    19 1   
     3     1    31 1   
     4     1    32 1   
     5     2     3 ar  
     6     2     7 ar  
     7     2    57 1   
     8     3     4 ar  
     9     3    33 1   
    10     4     5 ar  
    11     4    34 1   
    12     5     6 ar  
    13     5    30 1   
    14     6     7 ar  
    15     6    35 1   
    16     7    36 1   
    17     8    23 1   
    18     8    37 1   
    19     8    38 1   
    20     8    39 1   
    21     9    12 1   
    22     9    23 1   
    23     9    40 1   
    24     9    41 1   
    25    10    11 1   
    26    10    21 1   
    27    10    42 1   
    28    10    43 1   
    29    11    12 1   
    30    11    44 1   
    31    11    45 1   
    32    13    21 1   
    33    13    25 1   
    34    13    28 2   
    35    14    15 ar  
    36    14    20 ar  
    37    14    46 1   
    38    15    16 ar  
    39    15    47 1   
    40    16    17 ar  
    41    16    48 1   
    42    17    18 ar  
    43    17    24 1   
    44    18    20 ar  
    45    18    49 1   
    46    19    21 1   
    47    19    50 1   
    48    19    51 1   
    49    20    27 1   
    50    21    27 1   
    51    22    25 1   
    52    22    27 1   
    53    22    52 1   
    54    22    55 1   
    55    23    26 1   
    56    23    53 1   
    57    25    56 1   
    58    26    54 1   
    59    26    57 1   
    60    29    57 2   
@<TRIPOS>SUBSTRUCTURE
     1 MJY         1 TEMP              0 ****  ****    0 ROOT
