@<TRIPOS>MOLECULE
MJY
   57    60     1     0     0
SMALL
abcg2


@<TRIPOS>ATOM
      1 C15         -2.2730    -0.5630     2.0750 c6         1 MJY       0.175800
      2 C8           2.8470    -0.8430    -0.0760 ca         1 MJY      -0.139600
      3 C9           4.1950    -0.8560    -0.4210 ca         1 MJY      -0.076500
      4 C10          4.9190     0.3220    -0.5100 ca         1 MJY      -0.093500
      5 C11          4.2770     1.5300    -0.2730 ca         1 MJY      -0.005900
      6 C12          2.9300     1.5720     0.0530 ca         1 MJY      -0.093500
      7 C13          2.2260     0.3820     0.1540 ca         1 MJY      -0.076500
      8 C14          0.5110    -4.5130     1.4480 c3         1 MJY      -0.102100
      9 C5          -1.1970    -2.6750     1.4960 c3         1 MJY       0.158800
     10 C3          -1.7770     0.3320    -0.6320 c6         1 MJY      -0.078400
     11 C4          -1.9500    -1.1190    -0.2130 c6         1 MJY       0.175800
     12 N2          -1.4520    -1.2990     1.1360 n3         1 MJY      -0.760600
     13 C1          -1.6830     2.6920     0.0690 c          1 MJY       0.566000
     14 C18         -5.4150     0.3240     1.1420 ca         1 MJY      -0.122000
     15 C19         -6.4150    -0.6340     1.0960 ca         1 MJY      -0.078000
     16 C20         -6.8450    -1.1590    -0.1160 ca         1 MJY      -0.158000
     17 C21         -6.2380    -0.6970    -1.2660 ca         1 MJY       0.184000
     18 C22         -5.2250     0.2420    -1.2520 ca         1 MJY      -0.195000
     19 C16         -2.1390     0.9310     1.8050 c6         1 MJY      -0.078400
     20 C17         -4.7940     0.7570    -0.0300 ca         1 MJY       0.297000
     21 C2          -2.3830     1.3560     0.3540 c5         1 MJY       0.144200
     22 C23         -3.7600     2.7640    -0.9540 c5         1 MJY       0.372200
     23 C6           0.0400    -3.2320     0.7750 c3         1 MJY       0.114700
     24 F1          -6.6400    -1.1810    -2.4530 f          1 MJY      -0.177000
     25 N1          -2.5250     3.4350    -0.6540 ns         1 MJY      -0.511900
     26 N3           1.0460    -2.1830     0.7850 ns         1 MJY      -0.488900
     27 N4          -3.7760     1.7270     0.0590 nh         1 MJY      -0.818400
     28 O1          -0.5500     2.9850     0.4080 o          1 MJY      -0.549000
     29 O2           2.4900    -3.1050    -0.6890 o          1 MJY      -0.610100
     30 BR1          5.2500     3.1390    -0.4050 br         1 MJY      -0.097100
     31 H1          -3.3220    -0.8920     2.0360 h1         1 MJY       0.040200
     32 H2          -1.9180    -0.7610     3.0880 h1         1 MJY       0.040200
     33 H3           4.6930    -1.7950    -0.6200 ha         1 MJY       0.131000
     34 H4           5.9700     0.2880    -0.7650 ha         1 MJY       0.138000
     35 H5           2.4190     2.5100     0.2220 ha         1 MJY       0.138000
     36 H6           1.1720     0.4480     0.3940 ha         1 MJY       0.131000
     37 H7          -0.2970    -5.2460     1.4670 hc         1 MJY       0.046700
     38 H8           1.3490    -4.9540     0.9120 hc         1 MJY       0.046700
     39 H9           0.8200    -4.3210     2.4770 hc         1 MJY       0.046700
     40 H10         -1.0130    -2.7070     2.5740 h1         1 MJY       0.042700
     41 H11         -2.0470    -3.3480     1.3020 h1         1 MJY       0.042700
     42 H12         -0.7040     0.5180    -0.7180 hc         1 MJY       0.063950
     43 H13         -2.1890     0.4860    -1.6330 hc         1 MJY       0.063950
     44 H14         -2.9990    -1.4430    -0.3000 h1         1 MJY       0.040200
     45 H15         -1.3750    -1.7380    -0.9040 h1         1 MJY       0.040200
     46 H17         -5.1140     0.7510     2.0890 ha         1 MJY       0.130000
     47 H18         -6.8840    -0.9630     2.0140 ha         1 MJY       0.121000
     48 H19         -7.6360    -1.8950    -0.1630 ha         1 MJY       0.136000
     49 H20         -4.7830     0.5530    -2.1900 ha         1 MJY       0.131000
     50 H21         -2.7960     1.5000     2.4660 hc         1 MJY       0.063950
     51 H22         -1.1130     1.2080     2.0590 hc         1 MJY       0.063950
     52 H23         -4.6200     3.4250    -0.8410 h2         1 MJY       0.042700
     53 H24         -0.2170    -3.4630    -0.2640 h1         1 MJY       0.053700
     54 H25          0.7260    -1.3230     1.2100 hn         1 MJY       0.335500
     55 H16         -3.7510     2.3950    -1.9900 h2         1 MJY       0.042700
     56 H26         -2.2690     4.3170    -1.0690 hn         1 MJY       0.341500
     57 C7           2.1110    -2.1490    -0.0250 c          1 MJY       0.608700
@<TRIPOS>BOND
     1     1    12 1   
     2     1    19 1   
     3     1    31 1   
     4     1    32 1   
     5     2     3 ar  
     6     2     7 ar  
     7     2    57 1   
     8     3     4 ar  
     9     3    33 1   
    10     4     5 ar  
    11     4    34 1   
    12     5     6 ar  
    13     5    30 1   
    14     6     7 ar  
    15     6    35 1   
    16     7    36 1   
    17     8    23 1   
    18     8    37 1   
    19     8    38 1   
    20     8    39 1   
    21     9    12 1   
    22     9    23 1   
    23     9    40 1   
    24     9    41 1   
    25    10    11 1   
    26    10    21 1   
    27    10    42 1   
    28    10    43 1   
    29    11    12 1   
    30    11    44 1   
    31    11    45 1   
    32    13    21 1   
    33    13    25 1   
    34    13    28 2   
    35    14    15 ar  
    36    14    20 ar  
    37    14    46 1   
    38    15    16 ar  
    39    15    47 1   
    40    16    17 ar  
    41    16    48 1   
    42    17    18 ar  
    43    17    24 1   
    44    18    20 ar  
    45    18    49 1   
    46    19    21 1   
    47    19    50 1   
    48    19    51 1   
    49    20    27 1   
    50    21    27 1   
    51    22    25 1   
    52    22    27 1   
    53    22    52 1   
    54    22    55 1   
    55    23    26 1   
    56    23    53 1   
    57    25    56 1   
    58    26    54 1   
    59    26    57 1   
    60    29    57 2   
@<TRIPOS>SUBSTRUCTURE
     1 MJY         1 TEMP              0 ****  ****    0 ROOT
