@<TRIPOS>MOLECULE
MJZ
   63    65     1     0     0
SMALL
No Charge or Current Charge


@<TRIPOS>ATOM
      1 N1           2.7270     1.4200    -1.1750 n          1 MJZ      -0.320000
      2 C2           2.1800     1.8430     0.0610 c          1 MJZ       0.614000
      3 O2           1.8730     1.0910     0.9680 o          1 MJZ      -0.501000
      4 N3           2.0440     3.1880     0.2230 ns         1 MJZ      -0.461500
      5 C4           2.3610     4.1780    -0.6470 c          1 MJZ       0.611200
      6 O4           2.1960     5.3560    -0.3820 o          1 MJZ      -0.539000
      7 C5           2.9230     3.6900    -1.9040 cc         1 MJZ      -0.356200
      8 C6           3.0940     2.3480    -2.1490 cd         1 MJZ      -0.007400
      9 PA          -0.4550    -3.1470     1.9510 p5         1 MJZ       1.462800
     10 PB          -2.7200    -1.8570     1.7940 p5         1 MJZ       1.477800
     11 O'P         -5.2010     3.7120    -0.1250 o          1 MJZ      -0.736500
     12 O'Q         -3.6740     4.4240     1.1610 o          1 MJZ      -0.736500
     13 C1          -3.5620    -0.1350    -0.0200 c6         1 MJZ       0.429300
     14 O1A          0.1900    -2.7760     3.2460 o          1 MJZ      -0.845500
     15 O1B         -3.6570    -2.8070     1.1280 o          1 MJZ      -0.850500
     16 C1C          2.8590    -0.0280    -1.4900 c5         1 MJZ       0.360700
     17 C9          -2.5290    -0.1930    -1.2040 c6         1 MJZ       0.060700
     18 N2          -1.8820    -1.5130    -1.3650 ns         1 MJZ      -0.491900
     19 O2A         -1.2060    -4.4330     2.0310 o          1 MJZ      -0.845500
     20 O2B         -2.8420    -1.8810     3.2820 o          1 MJZ      -0.850500
     21 C2C          4.0800    -0.6020    -0.7010 c5         1 MJZ       0.062300
     22 O2C          5.3760    -0.2630    -1.2480 oh         1 MJZ      -0.725000
     23 C3          -1.4890     0.9540    -1.0290 c6         1 MJZ       0.147500
     24 N4          -0.4930     0.9780    -2.1370 n8         1 MJZ      -1.008200
     25 O3A         -1.2370    -1.9620     1.2700 os         1 MJZ      -0.719800
     26 O3B         -3.0200    -0.3590     1.2920 os         1 MJZ      -0.624400
     27 C3C          3.7660    -2.1110    -0.8870 c5         1 MJZ       0.099300
     28 O3C          4.1690    -2.5230    -2.1980 oh         1 MJZ      -0.717000
     29 C10         -2.2010     2.3460    -0.9080 c6         1 MJZ       0.167300
     30 O6          -1.2280     3.3910    -0.6600 oh         1 MJZ      -0.809000
     31 C4C          2.2040    -2.1320    -0.6780 c5         1 MJZ       0.155300
     32 O4C          1.7230    -0.8210    -1.0960 os         1 MJZ      -0.399000
     33 C11         -3.2920     2.3030     0.1980 c6         1 MJZ       0.005300
     34 O5          -4.1920     1.1660    -0.0120 os         1 MJZ      -0.430000
     35 C5C          1.7750    -2.3870     0.7960 c3         1 MJZ       0.235600
     36 O5C          0.6620    -3.2890     0.8020 os         1 MJZ      -0.595400
     37 C12         -4.0390     3.6770     0.2630 c          1 MJZ       0.727000
     38 C7          -2.3410    -2.5440    -2.1430 c          1 MJZ       0.625100
     39 O7          -3.3140    -2.4330    -2.8760 o          1 MJZ      -0.669100
     40 C8          -1.5400    -3.8350    -2.0330 c3         1 MJZ      -0.185100
     41 H5           3.1920     4.4490    -2.6280 ha         1 MJZ       0.205000
     42 H6           3.5020     1.9280    -3.0660 h4         1 MJZ       0.184000
     43 H1          -4.3480    -0.8800    -0.2200 h2         1 MJZ       0.083700
     44 H1C          3.0120    -0.1260    -2.5710 h2         1 MJZ       0.051700
     45 H2          -3.0880     0.0130    -2.1270 h1         1 MJZ       0.067700
     46 HN2         -1.1270    -1.7380    -0.7240 hn         1 MJZ       0.342500
     47 H2C          4.0200    -0.3310     0.3630 h1         1 MJZ       0.090700
     48 HO2C         5.5610     0.6780    -1.0140 ho         1 MJZ       0.496000
     49 H3          -0.9260     0.7820    -0.0980 h1         1 MJZ       0.046700
     50 HN3         -0.0330     1.8930    -2.0800 hn         1 MJZ       0.376000
     51 HN3A         0.2500     0.3120    -1.8980 hn         1 MJZ       0.376000
     52 H3C          4.2840    -2.7180    -0.1310 h1         1 MJZ       0.046700
     53 HO3C         4.9500    -1.9460    -2.3860 ho         1 MJZ       0.494000
     54 H4          -2.7110     2.5520    -1.8610 h1         1 MJZ       0.021700
     55 HO4         -1.6430     4.0430    -0.0440 ho         1 MJZ       0.569000
     56 H4C          1.7470    -2.9030    -1.3120 h1         1 MJZ       0.088700
     57 H7          -2.7980     2.1720     1.1720 h1         1 MJZ       0.059700
     58 H5C          2.6110    -2.8340     1.3490 h1         1 MJZ       0.027200
     59 H5CA         1.5260    -1.4340     1.2780 h1         1 MJZ       0.027200
     60 H8          -0.4790    -3.6160    -2.1960 hc         1 MJZ       0.060367
     61 H8'A        -1.5510    -4.1690    -0.9900 hc         1 MJZ       0.060367
     62 H8'B        -1.9050    -4.6170    -2.7070 hc         1 MJZ       0.060367
     63 H9           1.6510     3.4850     1.1000 hn         1 MJZ       0.347500
@<TRIPOS>BOND
     1     1     2 1   
     2     1     8 1   
     3     1    16 1   
     4     2     3 2   
     5     2     4 1   
     6     4     5 1   
     7     4    63 1   
     8     5     6 2   
     9     5     7 1   
    10     7     8 2   
    11     7    41 1   
    12     8    42 1   
    13     9    14 1   
    14     9    19 1   
    15     9    25 1   
    16     9    36 1   
    17    10    15 1   
    18    10    20 1   
    19    10    25 1   
    20    10    26 1   
    21    11    37 1   
    22    12    37 1   
    23    13    17 1   
    24    13    26 1   
    25    13    34 1   
    26    13    43 1   
    27    16    21 1   
    28    16    32 1   
    29    16    44 1   
    30    17    18 1   
    31    17    23 1   
    32    17    45 1   
    33    18    38 1   
    34    18    46 1   
    35    21    22 1   
    36    21    27 1   
    37    21    47 1   
    38    22    48 1   
    39    23    24 1   
    40    23    29 1   
    41    23    49 1   
    42    24    50 1   
    43    24    51 1   
    44    27    28 1   
    45    27    31 1   
    46    27    52 1   
    47    28    53 1   
    48    29    30 1   
    49    29    33 1   
    50    29    54 1   
    51    30    55 1   
    52    31    32 1   
    53    31    35 1   
    54    31    56 1   
    55    33    34 1   
    56    33    37 1   
    57    33    57 1   
    58    35    36 1   
    59    35    58 1   
    60    35    59 1   
    61    38    39 2   
    62    38    40 1   
    63    40    60 1   
    64    40    61 1   
    65    40    62 1   
@<TRIPOS>SUBSTRUCTURE
     1 MJZ         1 TEMP              0 ****  ****    0 ROOT
