@<TRIPOS>MOLECULE
MJZ
   63    65     1     0     0
SMALL
abcg2


@<TRIPOS>ATOM
      1 N1           2.2920     1.1360    -0.8280 n          1 MJZ      -0.320000
      2 C2           1.9400     1.3350     0.4950 c          1 MJZ       0.614000
      3 O2           2.0030     0.4730     1.3420 o          1 MJZ      -0.501000
      4 N3           1.5180     2.6080     0.7860 ns         1 MJZ      -0.461500
      5 C4           1.4970     3.7200    -0.0430 c          1 MJZ       0.611200
      6 O4           1.1730     4.8090     0.3900 o          1 MJZ      -0.539000
      7 C5           1.9190     3.4300    -1.3910 cc         1 MJZ      -0.356200
      8 C6           2.2810     2.1810    -1.7140 cd         1 MJZ      -0.007400
      9 PA          -0.0880    -3.0980     2.0320 p5         1 MJZ       1.462800
     10 PB          -2.5340    -1.5290     1.7970 p5         1 MJZ       1.477800
     11 O'P         -5.0240     3.7600     0.4350 o          1 MJZ      -0.736500
     12 O'Q         -3.1610     4.8630    -0.0930 o          1 MJZ      -0.736500
     13 C1          -3.3330     0.1640    -0.1360 c6         1 MJZ       0.429300
     14 O1A          0.7200    -2.6250     3.1990 o          1 MJZ      -0.845500
     15 O1B         -3.4670    -2.4810     1.1180 o          1 MJZ      -0.850500
     16 C1C          2.7770    -0.1560    -1.2920 c5         1 MJZ       0.360700
     17 C9          -2.4440     0.0550    -1.3830 c6         1 MJZ       0.060700
     18 N2          -1.7660    -1.2180    -1.4390 ns         1 MJZ      -0.491900
     19 O2A         -0.9600    -4.3090     2.1390 o          1 MJZ      -0.845500
     20 O2B         -2.6350    -1.2680     3.2670 o          1 MJZ      -0.850500
     21 C2C          4.0940    -0.6180    -0.6730 c5         1 MJZ       0.062300
     22 O2C          5.1570     0.0350    -1.3080 oh         1 MJZ      -0.725000
     23 C3          -1.4410     1.2000    -1.4700 c6         1 MJZ       0.147500
     24 N4          -0.7670     1.1500    -2.7570 n8         1 MJZ      -1.008200
     25 O3A         -0.9690    -1.8490     1.4270 os         1 MJZ      -0.719800
     26 O3B         -2.5980    -0.0650     1.0390 os         1 MJZ      -0.624400
     27 C3C          4.0130    -2.1210    -0.9420 c5         1 MJZ       0.099300
     28 O3C          4.3360    -2.4090    -2.2790 oh         1 MJZ      -0.717000
     29 C10         -2.1900     2.5180    -1.3300 c6         1 MJZ       0.167300
     30 O6          -1.2670     3.5710    -1.3250 oh         1 MJZ      -0.809000
     31 C4C          2.5260    -2.3920    -0.7290 c5         1 MJZ       0.155300
     32 O4C          1.8490    -1.1720    -1.0680 os         1 MJZ      -0.399000
     33 C11         -3.0380     2.5100    -0.0500 c6         1 MJZ       0.005300
     34 O5          -3.9320     1.4160    -0.0580 os         1 MJZ      -0.430000
     35 C5C          2.2080    -2.8410     0.6830 c3         1 MJZ       0.235600
     36 O5C          0.8860    -3.3310     0.7340 os         1 MJZ      -0.595400
     37 C12         -3.8350     3.8170     0.1110 c          1 MJZ       0.727000
     38 C7          -2.3610    -2.3400    -1.8960 c          1 MJZ       0.625100
     39 O7          -3.4330    -2.3290    -2.4870 o          1 MJZ      -0.669100
     40 C8          -1.6040    -3.6120    -1.6230 c3         1 MJZ      -0.185100
     41 H5           1.9250     4.2120    -2.1330 ha         1 MJZ       0.205000
     42 H6           2.5900     1.9330    -2.7200 h4         1 MJZ       0.184000
     43 H1          -4.1490    -0.5590    -0.2190 h2         1 MJZ       0.083700
     44 H1C          2.9390    -0.0160    -2.3670 h2         1 MJZ       0.051700
     45 H2          -3.1020     0.1240    -2.2540 h1         1 MJZ       0.067700
     46 HN2         -0.9560    -1.3320    -0.8450 hn         1 MJZ       0.342500
     47 H2C          4.1030    -0.4450     0.4070 h1         1 MJZ       0.090700
     48 HO2C         5.9280     0.0030    -0.7340 ho         1 MJZ       0.496000
     49 H3          -0.7470     1.1220    -0.6170 h1         1 MJZ       0.046700
     50 HN3         -0.0760     1.8890    -2.8000 hn         1 MJZ       0.376000
     51 HN3A        -0.2560     0.2790    -2.8370 hn         1 MJZ       0.376000
     52 H3C          4.6370    -2.6960    -0.2460 h1         1 MJZ       0.046700
     53 HO3C         5.1420    -1.9260    -2.4980 ho         1 MJZ       0.494000
     54 H4          -2.8800     2.5980    -2.1900 h1         1 MJZ       0.021700
     55 HO4         -1.7520     4.3060    -0.8810 ho         1 MJZ       0.569000
     56 H4C          2.1910    -3.1700    -1.4230 h1         1 MJZ       0.088700
     57 H7          -2.3510     2.4450     0.8080 h1         1 MJZ       0.059700
     58 H5C          2.9020    -3.6490     0.9410 h1         1 MJZ       0.027200
     59 H5CA         2.3700    -2.0290     1.3930 h1         1 MJZ       0.027200
     60 H8          -0.5260    -3.4730    -1.6720 hc         1 MJZ       0.060367
     61 H8'A        -1.8400    -3.9450    -0.6110 hc         1 MJZ       0.060367
     62 H8'B        -1.9010    -4.3870    -2.3260 hc         1 MJZ       0.060367
     63 H9           1.2520     2.7570     1.7510 hn         1 MJZ       0.347500
@<TRIPOS>BOND
     1     1     2 1   
     2     1     8 1   
     3     1    16 1   
     4     2     3 2   
     5     2     4 1   
     6     4     5 1   
     7     4    63 1   
     8     5     6 2   
     9     5     7 1   
    10     7     8 2   
    11     7    41 1   
    12     8    42 1   
    13     9    14 1   
    14     9    19 1   
    15     9    25 1   
    16     9    36 1   
    17    10    15 1   
    18    10    20 1   
    19    10    25 1   
    20    10    26 1   
    21    11    37 1   
    22    12    37 1   
    23    13    17 1   
    24    13    26 1   
    25    13    34 1   
    26    13    43 1   
    27    16    21 1   
    28    16    32 1   
    29    16    44 1   
    30    17    18 1   
    31    17    23 1   
    32    17    45 1   
    33    18    38 1   
    34    18    46 1   
    35    21    22 1   
    36    21    27 1   
    37    21    47 1   
    38    22    48 1   
    39    23    24 1   
    40    23    29 1   
    41    23    49 1   
    42    24    50 1   
    43    24    51 1   
    44    27    28 1   
    45    27    31 1   
    46    27    52 1   
    47    28    53 1   
    48    29    30 1   
    49    29    33 1   
    50    29    54 1   
    51    30    55 1   
    52    31    32 1   
    53    31    35 1   
    54    31    56 1   
    55    33    34 1   
    56    33    37 1   
    57    33    57 1   
    58    35    36 1   
    59    35    58 1   
    60    35    59 1   
    61    38    39 2   
    62    38    40 1   
    63    40    60 1   
    64    40    61 1   
    65    40    62 1   
@<TRIPOS>SUBSTRUCTURE
     1 MJZ         1 TEMP              0 ****  ****    0 ROOT
