@<TRIPOS>MOLECULE
MK0
  124   124     1     0     0
SMALL
abcg2


@<TRIPOS>ATOM
      1 C1         -20.1580    -0.4400     0.7030 c6         1 MK0       0.460300
      2 O1         -19.0370     0.4160     0.7300 os         1 MK0      -0.598400
      3 C2         -19.7350    -1.8800     0.4200 c6         1 MK0       0.147300
      4 O2         -19.0300    -1.9080    -0.8120 oh         1 MK0      -0.686000
      5 C3         -18.9770    -2.5330     1.5760 c6         1 MK0       0.152300
      6 O3         -17.6620    -2.0000     1.6810 oh         1 MK0      -0.609000
      7 C4         -19.7670    -2.3470     2.8810 c6         1 MK0       0.113300
      8 O4         -20.8580    -3.2700     2.8160 oh         1 MK0      -0.735000
      9 C5         -20.2610    -0.9120     3.0800 c6         1 MK0       0.156300
     10 O5         -20.8930    -0.3860     1.9050 os         1 MK0      -0.454000
     11 C6         -19.2000     0.0360     3.6400 c3         1 MK0       0.128600
     12 O6         -19.0290    -0.3060     5.0210 oh         1 MK0      -0.763000
     13 CAA         -2.3120     0.5350     7.1090 c3         1 MK0      -0.088100
     14 CAB         -4.0850     1.2600    -2.1260 c3         1 MK0      -0.086100
     15 CAC        -18.1020     0.6380    -6.6660 c3         1 MK0      -0.083100
     16 CAD         -6.8690    -0.4590    -6.7500 c3         1 MK0      -0.087100
     17 CAE        -16.8340    -5.9780    -5.4730 c3         1 MK0      -0.085100
     18 CAF         -9.3760    -6.6870    -5.5150 c3         1 MK0      -0.086100
     19 OAG        -17.8160     2.5640     0.5370 o          1 MK0      -0.817000
     20 OAL        -20.4210     2.5810     0.5650 o          1 MK0      -0.817000
     21 CAM         -1.9750     0.4590     5.6210 c3         1 MK0      -0.075400
     22 CAN         -3.2120     0.4470     4.7260 c3         1 MK0      -0.076400
     23 CAO         -2.8880     0.3680     3.2360 c3         1 MK0      -0.073400
     24 CAR        -18.5840     0.7220    -3.5240 c3         1 MK0      -0.082400
     25 CAX        -18.1250     1.1330    -2.1400 c3         1 MK0       0.219600
     26 CAY         -5.0570     0.2240    -0.0230 c3         1 MK0      -0.073400
     27 CAZ        -17.4670     0.0170    -4.2930 c3         1 MK0      -0.075400
     28 CBA         -6.1160    -0.2560    -2.2540 c3         1 MK0      -0.074400
     29 CBB        -16.8400    -1.4960    -6.2290 c3         1 MK0      -0.071400
     30 CBC         -7.3040    -1.0970    -4.3350 c3         1 MK0      -0.075400
     31 CBD        -15.7210    -3.7770    -6.0630 c3         1 MK0      -0.072400
     32 CBE         -8.5110    -2.2910    -6.2250 c3         1 MK0      -0.073400
     33 CBF        -14.3390    -5.8910    -5.7540 c3         1 MK0      -0.071400
     34 CBG        -10.0600    -4.3030    -6.0500 c3         1 MK0      -0.073400
     35 CBH        -11.8100    -6.1260    -5.7660 c3         1 MK0      -0.072400
     36 OBI        -19.2300     1.7270    -1.4350 os         1 MK0      -0.613400
     37 CBL         -4.8000     0.0470    -1.5260 c3         1 MK0      -0.057700
     38 CBM        -17.8760    -0.5070    -5.6760 c3         1 MK0      -0.059700
     39 CBN         -7.2150    -1.5950    -5.7840 c3         1 MK0      -0.057700
     40 CBO        -15.5840    -5.1090    -5.3130 c3         1 MK0      -0.060700
     41 CBP        -10.4380    -5.6010    -5.3230 c3         1 MK0      -0.058700
     42 PBV        -19.1270     1.9510     0.1690 p5         1 MK0       1.399800
     43 H1         -20.8570    -0.1140    -0.0690 h2         1 MK0       0.081700
     44 H2         -20.6730    -2.4360     0.3280 h1         1 MK0       0.038700
     45 HO2        -18.9180    -2.8300    -1.0760 ho         1 MK0       0.481000
     46 H3         -18.9250    -3.6090     1.3740 h1         1 MK0       0.019700
     47 HO3        -17.1730    -2.5440     2.3100 ho         1 MK0       0.418000
     48 H4         -19.1100    -2.6000     3.7200 h1         1 MK0       0.038700
     49 HO4        -21.3930    -3.1660     3.6130 ho         1 MK0       0.503000
     50 H5         -21.0670    -0.9420     3.8190 h1         1 MK0       0.059700
     51 H6         -18.2610    -0.0560     3.0990 h1         1 MK0       0.074700
     52 H6A        -19.5680     1.0610     3.5370 h1         1 MK0       0.074700
     53 HO6        -18.1720     0.0290     5.3110 ho         1 MK0       0.499000
     54 HAA         -1.4100     0.5430     7.7240 hc         1 MK0       0.031367
     55 HAAA        -2.8790     1.4430     7.3340 hc         1 MK0       0.031367
     56 HAAB        -2.9200    -0.3200     7.4160 hc         1 MK0       0.031367
     57 HABB        -3.1430     1.4650    -1.6140 hc         1 MK0       0.031033
     58 HAC        -18.4300     0.2550    -7.6350 hc         1 MK0       0.029033
     59 HACA       -18.8570     1.3420    -6.3120 hc         1 MK0       0.029033
     60 HACB       -17.1730     1.1950    -6.8230 hc         1 MK0       0.029033
     61 HAD         -6.7760    -0.8330    -7.7720 hc         1 MK0       0.031700
     62 HADA        -7.6560     0.3020    -6.7410 hc         1 MK0       0.031700
     63 HADB        -5.9290     0.0290    -6.4850 hc         1 MK0       0.031700
     64 HAE        -16.7280    -6.9160    -4.9240 hc         1 MK0       0.030700
     65 HAEA       -17.7310    -5.4760    -5.1070 hc         1 MK0       0.030700
     66 HAEB       -16.9960    -6.2240    -6.5280 hc         1 MK0       0.030700
     67 HAF         -9.6620    -7.6040    -4.9960 hc         1 MK0       0.029700
     68 HAFA        -9.2620    -6.9250    -6.5770 hc         1 MK0       0.029700
     69 HAFB        -8.4010    -6.3800    -5.1360 hc         1 MK0       0.029700
     70 HAM         -1.3410     1.3090     5.3460 hc         1 MK0       0.034700
     71 HAMA        -1.3830    -0.4420     5.4260 hc         1 MK0       0.034700
     72 HAN         -3.8480    -0.4020     5.0020 hc         1 MK0       0.038700
     73 HANA        -3.8050     1.3490     4.9200 hc         1 MK0       0.038700
     74 HAO         -2.2550     1.2190     2.9590 hc         1 MK0       0.034700
     75 HAOA        -2.2930    -0.5320     3.0440 hc         1 MK0       0.034700
     76 HAP         -4.7620    -0.4970     2.6270 hc         1 MK0       0.039200
     77 HAPA        -4.7210     1.2530     2.5330 hc         1 MK0       0.039200
     78 HAR        -19.4380     0.0460    -3.4240 hc         1 MK0       0.042200
     79 HARA       -18.9330     1.6050    -4.0640 hc         1 MK0       0.042200
     80 HAX        -17.7740     0.2600    -1.5870 h1         1 MK0       0.031200
     81 HAXA       -17.3090     1.8590    -2.2000 h1         1 MK0       0.031200
     82 HAY         -5.6930    -0.6000     0.3180 hc         1 MK0       0.039700
     83 HAYA        -5.6380     1.1420     0.1320 hc         1 MK0       0.039700
     84 HAZ        -16.6140     0.6950    -4.4130 hc         1 MK0       0.035700
     85 HAZA       -17.1120    -0.8170    -3.6810 hc         1 MK0       0.035700
     86 HBA         -6.7750     0.6190    -2.1760 hc         1 MK0       0.040200
     87 HBAA        -6.6240    -1.0680    -1.7230 hc         1 MK0       0.040200
     88 HBB        -15.8490    -1.0250    -6.1990 hc         1 MK0       0.029700
     89 HBBA       -17.0580    -1.6790    -7.2870 hc         1 MK0       0.029700
     90 HBC         -7.7180    -1.8890    -3.7050 hc         1 MK0       0.041700
     91 HBCA        -8.0210    -0.2670    -4.2930 hc         1 MK0       0.041700
     92 HBD        -15.9290    -3.9880    -7.1190 hc         1 MK0       0.034200
     93 HBDA       -14.7630    -3.2510    -6.0380 hc         1 MK0       0.034200
     94 HBE         -8.4630    -2.4630    -7.3060 hc         1 MK0       0.039200
     95 HBEA        -9.3550    -1.6100    -6.0610 hc         1 MK0       0.039200
     96 HBF        -14.3820    -6.0450    -6.8400 hc         1 MK0       0.032700
     97 HBFA       -14.3790    -6.8880    -5.3030 hc         1 MK0       0.032700
     98 HBG        -10.8840    -3.5890    -5.9630 hc         1 MK0       0.039200
     99 HBGA        -9.9540    -4.5190    -7.1200 hc         1 MK0       0.039200
    100 HBH        -11.9580    -7.1190    -5.3260 hc         1 MK0       0.034200
    101 HBHA       -11.7990    -6.2750    -6.8530 hc         1 MK0       0.034200
    102 HBL         -4.1480    -0.8280    -1.6480 hc         1 MK0       0.039700
    103 HBM        -18.8230    -1.0500    -5.5620 hc         1 MK0       0.043700
    104 HBN         -6.4090    -2.3380    -5.8320 hc         1 MK0       0.039700
    105 HBO        -15.4670    -4.8790    -4.2460 hc         1 MK0       0.048700
    106 HBP        -10.5010    -5.3750    -4.2500 hc         1 MK0       0.046700
    107 HAB         -3.8590     1.1120    -3.1820 hc         1 MK0       0.031033
    108 CAQ         -3.8070     0.2620     0.8530 c3         1 MK0      -0.072400
    109 CAT        -16.7910    -2.8400    -5.5050 c3         1 MK0      -0.077400
    110 CAV        -13.0020    -5.2490    -5.3850 c3         1 MK0      -0.076400
    111 CAU         -8.7900    -3.6270    -5.5370 c3         1 MK0      -0.074400
    112 CAS         -5.9760    -0.6540    -3.7230 c3         1 MK0      -0.072400
    113 HABA        -4.7140     2.1510    -2.0380 hc         1 MK0       0.031033
    114 HAS         -5.5600     0.1770    -4.2960 hc         1 MK0       0.035200
    115 CAP         -4.1270     0.3500     2.3440 c3         1 MK0      -0.076400
    116 HAQ         -3.1750     1.1110     0.5760 hc         1 MK0       0.035200
    117 HAQA        -3.2110    -0.6390     0.6660 hc         1 MK0       0.035200
    118 HASA        -5.2550    -1.4770    -3.8030 hc         1 MK0       0.035200
    119 HAT        -16.5950    -2.6870    -4.4390 hc         1 MK0       0.042700
    120 HATA       -17.7770    -3.3080    -5.5720 hc         1 MK0       0.042700
    121 HAU         -7.9270    -4.2820    -5.6860 hc         1 MK0       0.037200
    122 HAUA        -8.8830    -3.4830    -4.4560 hc         1 MK0       0.037200
    123 HAV        -12.9140    -4.2730    -5.8640 hc         1 MK0       0.042700
    124 HAVA       -12.9800    -5.0650    -4.3040 hc         1 MK0       0.042700
@<TRIPOS>BOND
     1     1     2 1   
     2     1     3 1   
     3     1    10 1   
     4     1    43 1   
     5     2    42 1   
     6     3     4 1   
     7     3     5 1   
     8     3    44 1   
     9     4    45 1   
    10     5     6 1   
    11     5     7 1   
    12     5    46 1   
    13     6    47 1   
    14     7     8 1   
    15     7     9 1   
    16     7    48 1   
    17     8    49 1   
    18     9    10 1   
    19     9    11 1   
    20     9    50 1   
    21    11    12 1   
    22    11    51 1   
    23    11    52 1   
    24    12    53 1   
    25    13    21 1   
    26    13    54 1   
    27    13    55 1   
    28    13    56 1   
    29    14    37 1   
    30    14    57 1   
    31    14   107 1   
    32    14   113 1   
    33    15    38 1   
    34    15    58 1   
    35    15    59 1   
    36    15    60 1   
    37    16    39 1   
    38    16    61 1   
    39    16    62 1   
    40    16    63 1   
    41    17    40 1   
    42    17    64 1   
    43    17    65 1   
    44    17    66 1   
    45    18    41 1   
    46    18    67 1   
    47    18    68 1   
    48    18    69 1   
    49    19    42 1   
    50    20    42 1   
    51    21    22 1   
    52    21    70 1   
    53    21    71 1   
    54    22    23 1   
    55    22    72 1   
    56    22    73 1   
    57    23    74 1   
    58    23    75 1   
    59    23   115 1   
    60    24    25 1   
    61    24    27 1   
    62    24    78 1   
    63    24    79 1   
    64    25    36 1   
    65    25    80 1   
    66    25    81 1   
    67    26    37 1   
    68    26    82 1   
    69    26    83 1   
    70    26   108 1   
    71    27    38 1   
    72    27    84 1   
    73    27    85 1   
    74    28    37 1   
    75    28    86 1   
    76    28    87 1   
    77    28   112 1   
    78    29    38 1   
    79    29    88 1   
    80    29    89 1   
    81    29   109 1   
    82    30    39 1   
    83    30    90 1   
    84    30    91 1   
    85    30   112 1   
    86    31    40 1   
    87    31    92 1   
    88    31    93 1   
    89    31   109 1   
    90    32    39 1   
    91    32    94 1   
    92    32    95 1   
    93    32   111 1   
    94    33    40 1   
    95    33    96 1   
    96    33    97 1   
    97    33   110 1   
    98    34    41 1   
    99    34    98 1   
   100    34    99 1   
   101    34   111 1   
   102    35    41 1   
   103    35   100 1   
   104    35   101 1   
   105    35   110 1   
   106    36    42 1   
   107    37   102 1   
   108    38   103 1   
   109    39   104 1   
   110    40   105 1   
   111    41   106 1   
   112    76   115 1   
   113    77   115 1   
   114   108   115 1   
   115   108   116 1   
   116   108   117 1   
   117   109   119 1   
   118   109   120 1   
   119   110   123 1   
   120   110   124 1   
   121   111   121 1   
   122   111   122 1   
   123   112   114 1   
   124   112   118 1   
@<TRIPOS>SUBSTRUCTURE
     1 MK0         1 TEMP              0 ****  ****    0 ROOT
