@<TRIPOS>MOLECULE
MK0
  124   124     1     0     0
SMALL
No Charge or Current Charge


@<TRIPOS>ATOM
      1 C1         -22.9090    -0.1760    -0.0460 c6         1 MK0       0.460300
      2 O1         -21.6690     0.0860     0.6160 os         1 MK0      -0.598400
      3 C2         -22.9440    -1.5750    -0.7780 c6         1 MK0       0.147300
      4 O2         -21.7750    -1.8180    -1.5920 oh         1 MK0      -0.686000
      5 C3         -23.1380    -2.7670     0.2150 c6         1 MK0       0.152300
      6 O3         -21.9120    -3.0510     0.9170 oh         1 MK0      -0.609000
      7 C4         -24.3340    -2.4840     1.1860 c6         1 MK0       0.113300
      8 O4         -25.5710    -2.5300     0.4360 oh         1 MK0      -0.735000
      9 C5         -24.1820    -1.0850     1.8810 c6         1 MK0       0.156300
     10 O5         -24.0160    -0.0360     0.8840 os         1 MK0      -0.454000
     11 C6         -23.0870    -0.9890     3.0020 c3         1 MK0       0.128600
     12 O6         -23.3590    -1.8710     4.1140 oh         1 MK0      -0.763000
     13 CAA          1.9340     0.1090     5.5590 c3         1 MK0      -0.088100
     14 CAB         -3.0050     1.6150    -2.4190 c3         1 MK0      -0.086100
     15 CAC        -17.9260     0.7750    -5.6920 c3         1 MK0      -0.083100
     16 CAD         -6.6720    -0.0200    -6.3700 c3         1 MK0      -0.087100
     17 CAE        -16.4650    -5.8790    -4.4400 c3         1 MK0      -0.085100
     18 CAF         -8.8910    -6.4160    -4.8980 c3         1 MK0      -0.086100
     19 OAG        -19.9410     1.8070     1.3960 o          1 MK0      -0.817000
     20 OAL        -22.1360     2.6090     0.6050 o          1 MK0      -0.817000
     21 CAM          1.7240     0.3490     4.0520 c3         1 MK0      -0.075400
     22 CAN          0.2680     0.1060     3.5980 c3         1 MK0      -0.076400
     23 CAO          0.0580     0.3470     2.0870 c3         1 MK0      -0.073400
     24 CAR        -19.2500     0.5890    -2.8670 c3         1 MK0      -0.082400
     25 CAX        -19.3560     0.7590    -1.3390 c3         1 MK0       0.219600
     26 CAY         -3.0700     0.1040    -0.3290 c3         1 MK0      -0.073400
     27 CAZ        -17.9810    -0.1860    -3.2980 c3         1 MK0      -0.075400
     28 CBA         -4.7610    -0.2650    -2.2050 c3         1 MK0      -0.074400
     29 CBB        -16.6350    -1.3550    -5.1780 c3         1 MK0      -0.071400
     30 CBC         -6.4720    -0.9990    -3.9900 c3         1 MK0      -0.075400
     31 CBD        -15.3950    -3.6120    -5.0480 c3         1 MK0      -0.072400
     32 CBE         -8.1780    -1.9530    -5.6900 c3         1 MK0      -0.073400
     33 CBF        -13.9570    -5.7580    -4.8430 c3         1 MK0      -0.071400
     34 CBG         -9.6980    -4.0150    -5.3940 c3         1 MK0      -0.073400
     35 CBH        -11.3880    -5.9400    -4.9990 c3         1 MK0      -0.072400
     36 OBI        -20.5650     1.4700    -1.0630 os         1 MK0      -0.613400
     37 CBL         -3.3160     0.2000    -1.8620 c3         1 MK0      -0.057700
     38 CBM        -17.8890    -0.5060    -4.8200 c3         1 MK0      -0.059700
     39 CBN         -6.7850    -1.2900    -5.4880 c3         1 MK0      -0.057700
     40 CBO        -15.2050    -4.9830    -4.3320 c3         1 MK0      -0.060700
     41 CBP         -9.9900    -5.3520    -4.6480 c3         1 MK0      -0.058700
     42 PBV        -21.0780     1.5680     0.4590 p5         1 MK0       1.399800
     43 H1         -23.0460     0.5720    -0.8440 h2         1 MK0       0.081700
     44 H2         -23.8250    -1.5540    -1.4350 h1         1 MK0       0.038700
     45 HO2        -21.1070    -2.1430    -0.9450 ho         1 MK0       0.481000
     46 H3         -23.4010    -3.6530    -0.3820 h1         1 MK0       0.019700
     47 HO3        -22.0690    -3.8600     1.4490 ho         1 MK0       0.418000
     48 H4         -24.3510    -3.2660     1.9600 h1         1 MK0       0.038700
     49 HO4        -26.3100    -2.4600     1.0850 ho         1 MK0       0.503000
     50 H5         -25.1310    -0.8740     2.3950 h1         1 MK0       0.059700
     51 H6         -22.0990    -1.2160     2.5840 h1         1 MK0       0.074700
     52 H6A        -23.0550     0.0550     3.3440 h1         1 MK0       0.074700
     53 HO6        -22.6380    -1.7390     4.7750 ho         1 MK0       0.499000
     54 HAA          2.9800     0.2930     5.8340 hc         1 MK0       0.031367
     55 HAAA         1.3000     0.7800     6.1520 hc         1 MK0       0.031367
     56 HAAB         1.6870    -0.9260     5.8250 hc         1 MK0       0.031367
     57 HABB        -1.9700     1.9070    -2.2120 hc         1 MK0       0.031033
     58 HAC        -17.8140     0.5260    -6.7540 hc         1 MK0       0.029033
     59 HACA       -18.8790     1.3040    -5.5830 hc         1 MK0       0.029033
     60 HACB       -17.1150     1.4600    -5.4150 hc         1 MK0       0.029033
     61 HAD         -6.9450    -0.2420    -7.4090 hc         1 MK0       0.031700
     62 HADA        -7.3390     0.7700    -6.0040 hc         1 MK0       0.031700
     63 HADB        -5.6470     0.3680    -6.3810 hc         1 MK0       0.031700
     64 HAE        -16.2900    -6.8540    -3.9680 hc         1 MK0       0.030700
     65 HAEA       -17.3230    -5.4250    -3.9320 hc         1 MK0       0.030700
     66 HAEB       -16.7330    -6.0510    -5.4890 hc         1 MK0       0.030700
     67 HAF         -9.1440    -7.3600    -4.4000 hc         1 MK0       0.029700
     68 HAFA        -8.7780    -6.6150    -5.9700 hc         1 MK0       0.029700
     69 HAFB        -7.9230    -6.0900    -4.5010 hc         1 MK0       0.029700
     70 HAM          2.0120     1.3800     3.8120 hc         1 MK0       0.034700
     71 HAMA         2.3960    -0.3100     3.4890 hc         1 MK0       0.034700
     72 HAN         -0.0170    -0.9250     3.8410 hc         1 MK0       0.038700
     73 HANA        -0.4010     0.7660     4.1640 hc         1 MK0       0.038700
     74 HAO          0.3430     1.3780     1.8440 hc         1 MK0       0.034700
     75 HAOA         0.7270    -0.3130     1.5200 hc         1 MK0       0.034700
     76 HAP         -1.6830    -0.9270     1.8770 hc         1 MK0       0.039200
     77 HAPA        -2.0670     0.7640     2.1990 hc         1 MK0       0.039200
     78 HAR        -20.1380     0.0600    -3.2320 hc         1 MK0       0.042200
     79 HARA       -19.2510     1.5850    -3.3250 hc         1 MK0       0.042200
     80 HAX        -19.3620    -0.2300    -0.8600 h1         1 MK0       0.031200
     81 HAXA       -18.4840     1.3170    -0.9720 h1         1 MK0       0.031200
     82 HAY         -3.3690    -0.8950     0.0120 hc         1 MK0       0.039700
     83 HAYA        -3.7260     0.8160     0.1880 hc         1 MK0       0.039700
     84 HAZ        -17.0930     0.3810    -2.9920 hc         1 MK0       0.035700
     85 HAZA       -17.9640    -1.1250    -2.7320 hc         1 MK0       0.035700
     86 HBA         -5.4810     0.4330    -1.7580 hc         1 MK0       0.040200
     87 HBAA        -4.9360    -1.2370    -1.7280 hc         1 MK0       0.040200
     88 HBB        -15.7300    -0.7980    -4.9010 hc         1 MK0       0.029700
     89 HBBA       -16.5980    -1.4820    -6.2680 hc         1 MK0       0.029700
     90 HBC         -6.5540    -1.9300    -3.4190 hc         1 MK0       0.041700
     91 HBCA        -7.2310    -0.3170    -3.5870 hc         1 MK0       0.041700
     92 HBD        -15.5140    -3.7800    -6.1260 hc         1 MK0       0.034200
     93 HBDA       -14.4860    -3.0120    -4.9240 hc         1 MK0       0.034200
     94 HBE         -8.3590    -2.0650    -6.7660 hc         1 MK0       0.039200
     95 HBEA        -8.9570    -1.2780    -5.3130 hc         1 MK0       0.039200
     96 HBF        -14.0690    -5.9570    -5.9160 hc         1 MK0       0.032700
     97 HBFA       -13.9290    -6.7370    -4.3480 hc         1 MK0       0.032700
     98 HBG        -10.4920    -3.2950    -5.1680 hc         1 MK0       0.039200
     99 HBGA        -9.7310    -4.1910    -6.4760 hc         1 MK0       0.039200
    100 HBH        -11.4930    -6.9090    -4.4960 hc         1 MK0       0.034200
    101 HBHA       -11.4340    -6.1440    -6.0760 hc         1 MK0       0.034200
    102 HBL         -2.6250    -0.5020    -2.3470 hc         1 MK0       0.039700
    103 HBM        -18.7710    -1.1010    -5.0880 hc         1 MK0       0.043700
    104 HBN         -6.0320    -2.0000    -5.8520 hc         1 MK0       0.039700
    105 HBO        -15.0470    -4.7800    -3.2650 hc         1 MK0       0.048700
    106 HBP         -9.9900    -5.1370    -3.5710 hc         1 MK0       0.046700
    107 HAB         -3.1280     1.6520    -3.5070 hc         1 MK0       0.031033
    108 CAQ         -1.6080     0.3440     0.1220 c3         1 MK0      -0.072400
    109 CAT        -16.5820    -2.7620    -4.5330 c3         1 MK0      -0.077400
    110 CAV        -12.5970    -5.0590    -4.5980 c3         1 MK0      -0.076400
    111 CAU         -8.3510    -3.3440    -5.0300 c3         1 MK0      -0.074400
    112 CAS         -5.0660    -0.4090    -3.7160 c3         1 MK0      -0.072400
    113 HABA        -3.6700     2.3650    -1.9720 hc         1 MK0       0.031033
    114 HAS         -4.9940     0.5740    -4.1920 hc         1 MK0       0.035200
    115 CAP         -1.3980     0.1040     1.6330 c3         1 MK0      -0.076400
    116 HAQ         -1.3130     1.3740    -0.1100 hc         1 MK0       0.035200
    117 HAQA        -0.9420    -0.3190    -0.4440 hc         1 MK0       0.035200
    118 HASA        -4.3080    -1.0540    -4.1780 hc         1 MK0       0.035200
    119 HAT        -16.4960    -2.6690    -3.4450 hc         1 MK0       0.042700
    120 HATA       -17.5260    -3.2780    -4.7450 hc         1 MK0       0.042700
    121 HAU         -7.5200    -3.9850    -5.3470 hc         1 MK0       0.037200
    122 HAUA        -8.2940    -3.2480    -3.9400 hc         1 MK0       0.037200
    123 HAV        -12.5660    -4.1280    -5.1730 hc         1 MK0       0.042700
    124 HAVA       -12.5140    -4.7920    -3.5370 hc         1 MK0       0.042700
@<TRIPOS>BOND
     1     1     2 1   
     2     1     3 1   
     3     1    10 1   
     4     1    43 1   
     5     2    42 1   
     6     3     4 1   
     7     3     5 1   
     8     3    44 1   
     9     4    45 1   
    10     5     6 1   
    11     5     7 1   
    12     5    46 1   
    13     6    47 1   
    14     7     8 1   
    15     7     9 1   
    16     7    48 1   
    17     8    49 1   
    18     9    10 1   
    19     9    11 1   
    20     9    50 1   
    21    11    12 1   
    22    11    51 1   
    23    11    52 1   
    24    12    53 1   
    25    13    21 1   
    26    13    54 1   
    27    13    55 1   
    28    13    56 1   
    29    14    37 1   
    30    14    57 1   
    31    14   107 1   
    32    14   113 1   
    33    15    38 1   
    34    15    58 1   
    35    15    59 1   
    36    15    60 1   
    37    16    39 1   
    38    16    61 1   
    39    16    62 1   
    40    16    63 1   
    41    17    40 1   
    42    17    64 1   
    43    17    65 1   
    44    17    66 1   
    45    18    41 1   
    46    18    67 1   
    47    18    68 1   
    48    18    69 1   
    49    19    42 1   
    50    20    42 1   
    51    21    22 1   
    52    21    70 1   
    53    21    71 1   
    54    22    23 1   
    55    22    72 1   
    56    22    73 1   
    57    23    74 1   
    58    23    75 1   
    59    23   115 1   
    60    24    25 1   
    61    24    27 1   
    62    24    78 1   
    63    24    79 1   
    64    25    36 1   
    65    25    80 1   
    66    25    81 1   
    67    26    37 1   
    68    26    82 1   
    69    26    83 1   
    70    26   108 1   
    71    27    38 1   
    72    27    84 1   
    73    27    85 1   
    74    28    37 1   
    75    28    86 1   
    76    28    87 1   
    77    28   112 1   
    78    29    38 1   
    79    29    88 1   
    80    29    89 1   
    81    29   109 1   
    82    30    39 1   
    83    30    90 1   
    84    30    91 1   
    85    30   112 1   
    86    31    40 1   
    87    31    92 1   
    88    31    93 1   
    89    31   109 1   
    90    32    39 1   
    91    32    94 1   
    92    32    95 1   
    93    32   111 1   
    94    33    40 1   
    95    33    96 1   
    96    33    97 1   
    97    33   110 1   
    98    34    41 1   
    99    34    98 1   
   100    34    99 1   
   101    34   111 1   
   102    35    41 1   
   103    35   100 1   
   104    35   101 1   
   105    35   110 1   
   106    36    42 1   
   107    37   102 1   
   108    38   103 1   
   109    39   104 1   
   110    40   105 1   
   111    41   106 1   
   112    76   115 1   
   113    77   115 1   
   114   108   115 1   
   115   108   116 1   
   116   108   117 1   
   117   109   119 1   
   118   109   120 1   
   119   110   123 1   
   120   110   124 1   
   121   111   121 1   
   122   111   122 1   
   123   112   114 1   
   124   112   118 1   
@<TRIPOS>SUBSTRUCTURE
     1 MK0         1 TEMP              0 ****  ****    0 ROOT
