@<TRIPOS>MOLECULE
MK1
   92    96     1     0     0
SMALL
No Charge or Current Charge


@<TRIPOS>ATOM
      1 N1           0.3870     0.4610     5.5760 n3         1 MK1      -0.722600
      2 C1           1.1000     0.0810     4.3220 c6         1 MK1       0.167800
      3 C2           0.6260     0.9150     3.0800 c6         1 MK1       0.116500
      4 C3           1.5540     0.6460     1.8380 c          1 MK1       0.594100
      5 O1           1.6940     1.4910     0.9620 o          1 MK1      -0.589100
      6 N2           2.1840    -0.5930     1.7810 ns         1 MK1      -0.511900
      7 C4           3.0240    -1.1190     0.6970 c3         1 MK1       0.139400
      8 C5           3.5190    -2.5140     1.1440 c3         1 MK1      -0.104433
      9 C6           4.2530    -0.2080     0.4550 c3         1 MK1      -0.104433
     10 C7           2.1860    -1.2740    -0.5960 c3         1 MK1      -0.104433
     11 N3          -0.8760     0.7210     2.8790 n3         1 MK1      -0.721600
     12 C8          -1.5960     1.1040     4.1350 c6         1 MK1       0.183800
     13 C9          -1.0880     0.3190     5.3800 c6         1 MK1       0.157800
     14 C10         -1.4660     1.4030     1.6810 c3         1 MK1       0.150800
     15 C11         -1.3070     0.6080     0.3510 c3         1 MK1       0.159300
     16 O2          -1.1770    -0.7690     0.7110 oh         1 MK1      -0.642000
     17 C12         -2.5070     0.7770    -0.6120 c3         1 MK1      -0.101400
     18 C13         -2.2720     0.1730    -2.0270 c3         1 MK1      -0.128700
     19 C14         -3.5820     0.0640    -2.8470 c3         1 MK1      -0.027100
     20 C15         -3.3560    -0.6300    -4.1860 ca         1 MK1      -0.090300
     21 C16         -3.2400    -2.0330    -4.2460 ca         1 MK1      -0.107500
     22 C17         -3.0160    -2.6740    -5.4760 ca         1 MK1      -0.117500
     23 C18         -2.9020    -1.9170    -6.6540 ca         1 MK1      -0.115000
     24 C19         -3.0140    -0.5170    -6.6000 ca         1 MK1      -0.117500
     25 C20         -3.2400     0.1240    -5.3700 ca         1 MK1      -0.107500
     26 C21         -1.2230     0.9760    -2.8260 c          1 MK1       0.601100
     27 O3          -1.3810     2.1570    -3.1100 o          1 MK1      -0.611100
     28 N4          -0.1120     0.2550    -3.2090 ns         1 MK1      -0.495900
     29 C22          0.7190     0.7770    -4.3080 c5         1 MK1       0.118000
     30 C23          0.4940    -0.2280    -5.5390 c5         1 MK1       0.157300
     31 O4           0.0340    -1.5380    -5.1590 oh         1 MK1      -0.659000
     32 C24          1.8980    -0.3340    -6.2550 c5         1 MK1      -0.032100
     33 C25          2.8460     0.0550    -5.1510 ca         1 MK1      -0.070300
     34 C26          4.2400    -0.1170    -5.1510 ca         1 MK1      -0.095000
     35 C27          4.9860     0.3550    -4.0540 ca         1 MK1      -0.105000
     36 C28          4.3350     1.0010    -2.9830 ca         1 MK1      -0.116000
     37 C29          2.9360     1.1640    -3.0000 ca         1 MK1      -0.087000
     38 C30          2.2060     0.6680    -4.0930 ca         1 MK1      -0.105300
     39 C31          0.8920    -0.2670     6.7600 c3         1 MK1       0.219100
     40 C32          0.3050     0.2500     8.0630 ca         1 MK1      -0.139300
     41 C33          0.6380     1.5390     8.5210 ca         1 MK1       0.354900
     42 N5           0.1550     2.0650     9.6740 nb         1 MK1      -0.670000
     43 C34         -0.6910     1.3040    10.4070 ca         1 MK1       0.333900
     44 C35         -1.0800     0.0090    10.0230 ca         1 MK1      -0.166000
     45 C36         -0.5760    -0.5350     8.8300 ca         1 MK1      -0.072000
     46 H11A         0.9440    -0.9890     4.1180 h1         1 MK1       0.052200
     47 H12          2.1820     0.2340     4.4520 h1         1 MK1       0.052200
     48 H2           0.8070     1.9720     3.3230 h1         1 MK1       0.030700
     49 HN2          1.9760    -1.2290     2.5390 hn         1 MK1       0.309500
     50 H51          4.1490    -2.9720     0.3720 hc         1 MK1       0.044922
     51 H52          4.1120    -2.4430     2.0650 hc         1 MK1       0.044922
     52 H53          2.6760    -3.1890     1.3350 hc         1 MK1       0.044922
     53 H61          4.8150    -0.0560     1.3840 hc         1 MK1       0.044922
     54 H62          4.9310    -0.6590    -0.2800 hc         1 MK1       0.044922
     55 H63          3.9620     0.7750     0.0700 hc         1 MK1       0.044922
     56 H71          1.3440    -1.9570    -0.4360 hc         1 MK1       0.044922
     57 H72          1.7770    -0.3150    -0.9260 hc         1 MK1       0.044922
     58 H73          2.7990    -1.6760    -1.4130 hc         1 MK1       0.044922
     59 H81         -2.6740     0.9160     4.0280 h1         1 MK1       0.039200
     60 H82         -1.4750     2.1810     4.3250 h1         1 MK1       0.039200
     61 H91         -1.3530    -0.7410     5.2550 h1         1 MK1       0.047700
     62 H92         -1.6330     0.6840     6.2620 h1         1 MK1       0.047700
     63 H101        -2.5440     1.5360     1.8440 h1         1 MK1       0.034200
     64 H102        -1.0460     2.4100     1.5600 h1         1 MK1       0.034200
     65 H11         -0.4010     0.9590    -0.1580 h1         1 MK1       0.098700
     66 HO2         -1.0490    -0.7090     1.6910 ho         1 MK1       0.429000
     67 H121        -3.3890     0.3090    -0.1560 hc         1 MK1       0.054200
     68 H122        -2.7420     1.8440    -0.7120 hc         1 MK1       0.054200
     69 H13         -1.8950    -0.8480    -1.8950 hc         1 MK1       0.061700
     70 H141        -4.3270    -0.4950    -2.2670 hc         1 MK1       0.066700
     71 H142        -4.0050     1.0650    -2.9980 hc         1 MK1       0.066700
     72 H16         -3.3250    -2.6270    -3.3380 ha         1 MK1       0.120000
     73 H17         -2.9300    -3.7580    -5.5170 ha         1 MK1       0.116000
     74 H18         -2.7290    -2.4130    -7.6070 ha         1 MK1       0.117000
     75 H19         -2.9270     0.0700    -7.5120 ha         1 MK1       0.116000
     76 H20         -3.3210     1.2080    -5.3380 ha         1 MK1       0.120000
     77 HN4         -0.0800    -0.7180    -2.9330 hn         1 MK1       0.322500
     78 H22          0.4730     1.8060    -4.6070 h1         1 MK1       0.095700
     79 H23         -0.2370     0.2060    -6.2350 h1         1 MK1       0.048700
     80 HO4         -0.9480    -1.5140    -5.2110 ho         1 MK1       0.452000
     81 H241         2.0930    -1.3370    -6.6510 hc         1 MK1       0.065700
     82 H242         1.9650     0.3650    -7.0960 hc         1 MK1       0.065700
     83 H26          4.7380    -0.5990    -5.9900 ha         1 MK1       0.115000
     84 H27          6.0670     0.2330    -4.0390 ha         1 MK1       0.111000
     85 H28          4.9160     1.3810    -2.1460 ha         1 MK1       0.109000
     86 H29          2.4300     1.6710    -2.1810 ha         1 MK1       0.115000
     87 H311         0.6760    -1.3410     6.6650 h1         1 MK1       0.042200
     88 H312         1.9840    -0.1660     6.8200 h1         1 MK1       0.042200
     89 H33          1.3160     2.1720     7.9500 h4         1 MK1       0.030100
     90 H34         -1.0680     1.7460    11.3280 h4         1 MK1       0.018100
     91 H35         -1.7630    -0.5600    10.6470 ha         1 MK1       0.123000
     92 H36         -0.8630    -1.5350     8.5110 ha         1 MK1       0.117000
@<TRIPOS>BOND
     1     1     2 1   
     2     1    13 1   
     3     1    39 1   
     4     2     3 1   
     5     2    46 1   
     6     2    47 1   
     7     3     4 1   
     8     3    11 1   
     9     3    48 1   
    10     4     5 2   
    11     4     6 1   
    12     6     7 1   
    13     6    49 1   
    14     7     8 1   
    15     7     9 1   
    16     7    10 1   
    17     8    50 1   
    18     8    51 1   
    19     8    52 1   
    20     9    53 1   
    21     9    54 1   
    22     9    55 1   
    23    10    56 1   
    24    10    57 1   
    25    10    58 1   
    26    11    12 1   
    27    11    14 1   
    28    12    13 1   
    29    12    59 1   
    30    12    60 1   
    31    13    61 1   
    32    13    62 1   
    33    14    15 1   
    34    14    63 1   
    35    14    64 1   
    36    15    16 1   
    37    15    17 1   
    38    15    65 1   
    39    16    66 1   
    40    17    18 1   
    41    17    67 1   
    42    17    68 1   
    43    18    19 1   
    44    18    26 1   
    45    18    69 1   
    46    19    20 1   
    47    19    70 1   
    48    19    71 1   
    49    20    21 ar  
    50    20    25 ar  
    51    21    22 ar  
    52    21    72 1   
    53    22    23 ar  
    54    22    73 1   
    55    23    24 ar  
    56    23    74 1   
    57    24    25 ar  
    58    24    75 1   
    59    25    76 1   
    60    26    27 2   
    61    26    28 1   
    62    28    29 1   
    63    28    77 1   
    64    29    30 1   
    65    29    38 1   
    66    29    78 1   
    67    30    31 1   
    68    30    32 1   
    69    30    79 1   
    70    31    80 1   
    71    32    33 1   
    72    32    81 1   
    73    32    82 1   
    74    33    34 ar  
    75    33    38 ar  
    76    34    35 ar  
    77    34    83 1   
    78    35    36 ar  
    79    35    84 1   
    80    36    37 ar  
    81    36    85 1   
    82    37    38 ar  
    83    37    86 1   
    84    39    40 1   
    85    39    87 1   
    86    39    88 1   
    87    40    41 ar  
    88    40    45 ar  
    89    41    42 ar  
    90    41    89 1   
    91    42    43 ar  
    92    43    44 ar  
    93    43    90 1   
    94    44    45 ar  
    95    44    91 1   
    96    45    92 1   
@<TRIPOS>SUBSTRUCTURE
     1 MK1         1 TEMP              0 ****  ****    0 ROOT
