@<TRIPOS>MOLECULE
MK1
   92    96     1     0     0
SMALL
bcc


@<TRIPOS>ATOM
      1 N1          -0.1330    -0.3360     5.7620 n3         1 MK1      -0.722600
      2 C1           0.7420    -0.8580     4.7340 c6         1 MK1       0.167800
      3 C2           0.8440     0.1130     3.5590 c6         1 MK1       0.116500
      4 C3           1.7060    -0.5470     2.4790 c          1 MK1       0.661100
      5 O1           1.3370    -1.5690     1.9170 o          1 MK1      -0.589100
      6 N2           2.8640     0.0780     2.2310 ns         1 MK1      -0.578900
      7 C4           3.8750    -0.3050     1.2370 c3         1 MK1       0.139400
      8 C5           4.9790     0.7470     1.3290 c3         1 MK1      -0.104433
      9 C6           3.2800    -0.2830    -0.1720 c3         1 MK1      -0.104433
     10 C7           4.4610    -1.6800     1.5590 c3         1 MK1      -0.104433
     11 N3          -0.4750     0.3900     3.0270 n3         1 MK1      -0.721600
     12 C8          -1.3730     0.8710     4.0580 c6         1 MK1       0.183800
     13 C9          -1.4540    -0.1050     5.2110 c6         1 MK1       0.157800
     14 C10         -0.4770     1.2220     1.8330 c3         1 MK1       0.150800
     15 C11         -1.1820     0.5410     0.6630 c3         1 MK1       0.136100
     16 O2          -2.5370     0.2740     0.9620 oh         1 MK1      -0.579800
     17 C12         -0.9930     1.3390    -0.6240 c3         1 MK1      -0.101400
     18 C13         -1.3830     0.5820    -1.8990 c3         1 MK1      -0.128700
     19 C14         -2.8980     0.5570    -2.1710 c3         1 MK1      -0.027100
     20 C15         -3.2230    -0.1160    -3.4750 ca         1 MK1      -0.090300
     21 C16         -3.1510    -1.5040    -3.5910 ca         1 MK1      -0.125500
     22 C17         -3.3920    -2.1320    -4.8060 ca         1 MK1      -0.135500
     23 C18         -3.7100    -1.3770    -5.9310 ca         1 MK1      -0.133000
     24 C19         -3.7890     0.0050    -5.8260 ca         1 MK1      -0.135500
     25 C20         -3.5450     0.6280    -4.6080 ca         1 MK1      -0.125500
     26 C21         -0.7020     1.2200    -3.0960 c          1 MK1       0.668100
     27 O3          -0.8480     2.4040    -3.3610 o          1 MK1      -0.611100
     28 N4           0.0510     0.3820    -3.8340 ns         1 MK1      -0.562900
     29 C22          0.7470     0.7500    -5.0350 c5         1 MK1       0.118000
     30 C23          0.1350     0.1500    -6.3290 c5         1 MK1       0.134100
     31 O4          -0.3040    -1.1700    -6.1170 oh         1 MK1      -0.596800
     32 C24          1.3250     0.1080    -7.2920 c5         1 MK1      -0.032100
     33 C25          2.5020    -0.1030    -6.3810 ca         1 MK1      -0.070300
     34 C26          3.7730    -0.5730    -6.6680 ca         1 MK1      -0.113000
     35 C27          4.7010    -0.6830    -5.6360 ca         1 MK1      -0.123000
     36 C28          4.3610    -0.3230    -4.3360 ca         1 MK1      -0.134000
     37 C29          3.0860     0.1560    -4.0500 ca         1 MK1      -0.105000
     38 C30          2.1690     0.2600    -5.0810 ca         1 MK1      -0.105300
     39 C31         -0.1640    -1.2080     6.9180 c3         1 MK1       0.219100
     40 C32         -0.8400    -0.5670     8.0980 ca         1 MK1      -0.204600
     41 C33         -0.5160     0.7300     8.4890 ca         1 MK1       0.420200
     42 N5          -1.0520     1.3460     9.5330 nb         1 MK1      -0.670000
     43 C34         -1.9550     0.6840    10.2500 ca         1 MK1       0.399200
     44 C35         -2.3570    -0.6070     9.9520 ca         1 MK1      -0.249300
     45 C36         -1.7890    -1.2390     8.8550 ca         1 MK1      -0.090000
     46 H11A         0.3940    -1.8340     4.3580 h1         1 MK1       0.052200
     47 H12          1.7400    -1.0060     5.1560 h1         1 MK1       0.052200
     48 H2           1.3360     1.0340     3.9190 h1         1 MK1       0.030700
     49 HN2          3.0440     0.9250     2.7480 hn         1 MK1       0.309500
     50 H51          5.7660     0.5270     0.6090 hc         1 MK1       0.044922
     51 H52          4.5940     1.7460     1.1100 hc         1 MK1       0.044922
     52 H53          5.4300     0.7650     2.3240 hc         1 MK1       0.044922
     53 H61          2.8660     0.7020    -0.4020 hc         1 MK1       0.044922
     54 H62          4.0610    -0.4970    -0.9050 hc         1 MK1       0.044922
     55 H63          2.4920    -1.0240    -0.2950 hc         1 MK1       0.044922
     56 H71          4.8710    -1.6960     2.5700 hc         1 MK1       0.044922
     57 H72          3.7150    -2.4680     1.4760 hc         1 MK1       0.044922
     58 H73          5.2710    -1.9100     0.8660 hc         1 MK1       0.044922
     59 H81         -2.3690     0.9930     3.6300 h1         1 MK1       0.039200
     60 H82         -1.0630     1.8550     4.4460 h1         1 MK1       0.039200
     61 H91         -1.9190    -1.0460     4.8700 h1         1 MK1       0.047700
     62 H92         -2.1030     0.3160     5.9810 h1         1 MK1       0.047700
     63 H101        -0.9480     2.1950     2.0330 h1         1 MK1       0.034200
     64 H102         0.5460     1.4640     1.5270 h1         1 MK1       0.034200
     65 H11         -0.7170    -0.4410     0.5300 h1         1 MK1       0.098700
     66 HO2         -3.0000     1.1160     1.0420 ho         1 MK1       0.390000
     67 H121        -1.5350     2.2890    -0.5690 hc         1 MK1       0.054200
     68 H122         0.0680     1.6020    -0.6870 hc         1 MK1       0.054200
     69 H13         -1.0370    -0.4530    -1.7940 hc         1 MK1       0.061700
     70 H141        -3.3920     0.0410    -1.3480 hc         1 MK1       0.066700
     71 H142        -3.2710     1.5830    -2.1770 hc         1 MK1       0.066700
     72 H16         -2.9020    -2.1020    -2.7210 ha         1 MK1       0.138000
     73 H17         -3.3310    -3.2110    -4.8770 ha         1 MK1       0.134000
     74 H18         -3.8960    -1.8640    -6.8790 ha         1 MK1       0.135000
     75 H19         -4.0370     0.6010    -6.6950 ha         1 MK1       0.134000
     76 H20         -3.6020     1.7070    -4.5370 ha         1 MK1       0.138000
     77 HN4          0.1130    -0.5810    -3.5440 hn         1 MK1       0.322500
     78 H22          0.7270     1.8410    -5.1130 h1         1 MK1       0.095700
     79 H23         -0.6790     0.7800    -6.7060 h1         1 MK1       0.048700
     80 HO4         -1.1410    -1.1440    -5.6400 ho         1 MK1       0.413000
     81 H241         1.2120    -0.6620    -8.0570 hc         1 MK1       0.065700
     82 H242         1.4120     1.0670    -7.8110 hc         1 MK1       0.065700
     83 H26          4.0430    -0.8620    -7.6770 ha         1 MK1       0.133000
     84 H27          5.6940    -1.0580    -5.8460 ha         1 MK1       0.129000
     85 H28          5.0910    -0.4190    -3.5430 ha         1 MK1       0.127000
     86 H29          2.8160     0.4340    -3.0380 ha         1 MK1       0.133000
     87 H311        -0.6500    -2.1730     6.6980 h1         1 MK1       0.042200
     88 H312         0.8700    -1.4440     7.1910 h1         1 MK1       0.042200
     89 H33          0.2090     1.2940     7.9110 h4         1 MK1       0.030100
     90 H34         -2.3800     1.2080    11.0990 h4         1 MK1       0.018100
     91 H35         -3.1000    -1.1040    10.5610 ha         1 MK1       0.141000
     92 H36         -2.0860    -2.2460     8.5880 ha         1 MK1       0.135000
@<TRIPOS>BOND
     1     1     2 1   
     2     1    13 1   
     3     1    39 1   
     4     2     3 1   
     5     2    46 1   
     6     2    47 1   
     7     3     4 1   
     8     3    11 1   
     9     3    48 1   
    10     4     5 2   
    11     4     6 1   
    12     6     7 1   
    13     6    49 1   
    14     7     8 1   
    15     7     9 1   
    16     7    10 1   
    17     8    50 1   
    18     8    51 1   
    19     8    52 1   
    20     9    53 1   
    21     9    54 1   
    22     9    55 1   
    23    10    56 1   
    24    10    57 1   
    25    10    58 1   
    26    11    12 1   
    27    11    14 1   
    28    12    13 1   
    29    12    59 1   
    30    12    60 1   
    31    13    61 1   
    32    13    62 1   
    33    14    15 1   
    34    14    63 1   
    35    14    64 1   
    36    15    16 1   
    37    15    17 1   
    38    15    65 1   
    39    16    66 1   
    40    17    18 1   
    41    17    67 1   
    42    17    68 1   
    43    18    19 1   
    44    18    26 1   
    45    18    69 1   
    46    19    20 1   
    47    19    70 1   
    48    19    71 1   
    49    20    21 ar  
    50    20    25 ar  
    51    21    22 ar  
    52    21    72 1   
    53    22    23 ar  
    54    22    73 1   
    55    23    24 ar  
    56    23    74 1   
    57    24    25 ar  
    58    24    75 1   
    59    25    76 1   
    60    26    27 2   
    61    26    28 1   
    62    28    29 1   
    63    28    77 1   
    64    29    30 1   
    65    29    38 1   
    66    29    78 1   
    67    30    31 1   
    68    30    32 1   
    69    30    79 1   
    70    31    80 1   
    71    32    33 1   
    72    32    81 1   
    73    32    82 1   
    74    33    34 ar  
    75    33    38 ar  
    76    34    35 ar  
    77    34    83 1   
    78    35    36 ar  
    79    35    84 1   
    80    36    37 ar  
    81    36    85 1   
    82    37    38 ar  
    83    37    86 1   
    84    39    40 1   
    85    39    87 1   
    86    39    88 1   
    87    40    41 ar  
    88    40    45 ar  
    89    41    42 ar  
    90    41    89 1   
    91    42    43 ar  
    92    43    44 ar  
    93    43    90 1   
    94    44    45 ar  
    95    44    91 1   
    96    45    92 1   
@<TRIPOS>SUBSTRUCTURE
     1 MK1         1 TEMP              0 ****  ****    0 ROOT
