@<TRIPOS>MOLECULE
MK3
   43    46     1     0     0
SMALL
No Charge or Current Charge


@<TRIPOS>ATOM
      1 C1           4.6750    -2.7300    -0.6700 ca         1 MK3       0.408900
      2 N1           4.2260    -1.4910    -0.4410 nb         1 MK3      -0.320000
      3 O1           0.1540     3.7880    -0.5100 oh         1 MK3      -0.527100
      4 S1          -4.2830     1.1130     0.6400 ss         1 MK3       0.120400
      5 C2           6.4440    -2.5980     0.7570 ca         1 MK3       0.175900
      6 N2           5.7400    -3.3320    -0.1240 nb         1 MK3      -0.274000
      7 O2          -6.9520    -1.5110    -0.8610 o          1 MK3      -0.533100
      8 C3           6.0660    -1.2840     1.0740 ca         1 MK3      -0.347000
      9 N3           3.9660    -3.4610    -1.5600 nv         1 MK3      -1.055900
     10 C4           4.9280    -0.7700     0.4470 ca         1 MK3       0.425900
     11 N4           4.5390     0.5340     0.7130 nu         1 MK3      -0.933900
     12 C5           3.4130     1.3070     0.3980 ca         1 MK3       0.278000
     13 N5          -7.1960     0.2500     0.5970 ne         1 MK3      -0.657100
     14 C6           2.1500     0.7400     0.1430 ca         1 MK3      -0.086000
     15 C7           1.0180     1.5420    -0.1560 cp         1 MK3      -0.053000
     16 C8           1.1890     2.9540    -0.1930 ca         1 MK3       0.126100
     17 C9           2.4440     3.5240     0.0770 ca         1 MK3      -0.177000
     18 C10          3.5460     2.7050     0.3770 ca         1 MK3      -0.125000
     19 C11         -0.3000     0.8800    -0.4190 cp         1 MK3      -0.002000
     20 C12         -0.3810    -0.2480    -1.2830 ca         1 MK3      -0.108000
     21 C13         -1.6080    -0.8950    -1.5290 ca         1 MK3      -0.067000
     22 C14         -1.4950     1.3330     0.2030 ca         1 MK3      -0.059000
     23 C15         -2.7070     0.6750    -0.0540 ca         1 MK3      -0.161000
     24 C16         -2.7650    -0.4120    -0.9010 ca         1 MK3      -0.095800
     25 C17         -4.0980    -0.9520    -1.0370 cc         1 MK3      -0.095200
     26 C18         -5.0170    -0.2430    -0.2730 cd         1 MK3      -0.150600
     27 C19         -6.4610    -0.5870    -0.2280 c          1 MK3       0.731700
     28 C20         -7.7440    -0.2890     1.6430 c2         1 MK3       0.515100
     29 HO1          0.4840     4.7110    -0.5010 ho         1 MK3       0.463000
     30 H2           7.3160    -3.0670     1.2100 h4         1 MK3       0.018100
     31 H3           6.6410    -0.6960     1.7840 ha         1 MK3       0.130000
     32 HN3          3.0420    -3.1310    -1.8270 hn         1 MK3       0.491500
     33 HN3A         4.1250    -4.4650    -1.6010 hn         1 MK3       0.491500
     34 HN4          5.2730     1.0620     1.1840 hn         1 MK3       0.497000
     35 H6           2.0250    -0.3350     0.2040 ha         1 MK3       0.157000
     36 H9           2.5750     4.6040     0.0520 ha         1 MK3       0.115000
     37 H10          4.5100     3.1630     0.5820 ha         1 MK3       0.111000
     38 H12          0.5170    -0.6160    -1.7730 ha         1 MK3       0.122000
     39 H13         -1.6550    -1.7530    -2.1960 ha         1 MK3       0.119000
     40 H14         -1.4710     2.1800     0.8840 ha         1 MK3       0.130000
     41 H17         -4.3620    -1.8070    -1.6560 ha         1 MK3       0.218000
     42 H20         -7.6200    -1.3460     1.8650 h4         1 MK3      -0.008700
     43 H20A        -8.3310     0.3210     2.3230 h4         1 MK3      -0.008700
@<TRIPOS>BOND
     1     1     2 ar  
     2     1     6 ar  
     3     1     9 1   
     4     2    10 ar  
     5     3    16 1   
     6     3    29 1   
     7     4    23 1   
     8     4    26 1   
     9     5     6 ar  
    10     5     8 ar  
    11     5    30 1   
    12     7    27 2   
    13     8    10 ar  
    14     8    31 1   
    15     9    32 1   
    16     9    33 1   
    17    10    11 1   
    18    11    12 1   
    19    11    34 1   
    20    12    14 ar  
    21    12    18 ar  
    22    13    27 1   
    23    13    28 2   
    24    14    15 ar  
    25    14    35 1   
    26    15    16 ar  
    27    15    19 1   
    28    16    17 ar  
    29    17    18 ar  
    30    17    36 1   
    31    18    37 1   
    32    19    20 ar  
    33    19    22 ar  
    34    20    21 ar  
    35    20    38 1   
    36    21    24 ar  
    37    21    39 1   
    38    22    23 ar  
    39    22    40 1   
    40    23    24 ar  
    41    24    25 1   
    42    25    26 2   
    43    25    41 1   
    44    26    27 1   
    45    28    42 1   
    46    28    43 1   
@<TRIPOS>SUBSTRUCTURE
     1 MK3         1 TEMP              0 ****  ****    0 ROOT
