@<TRIPOS>MOLECULE
MK3
   43    46     1     0     0
SMALL
bcc


@<TRIPOS>ATOM
      1 C1           4.1580    -2.8680    -0.0940 ca         1 MK3       0.934900
      2 N1           3.8590    -1.5690     0.0130 nb         1 MK3      -0.846000
      3 O1           0.1110     3.8030    -0.1630 oh         1 MK3      -0.488100
      4 S1          -4.1020     0.8310     0.6690 ss         1 MK3      -0.006500
      5 C2           6.3330    -2.5660     0.4010 ca         1 MK3       0.504200
      6 N2           5.3580    -3.4190     0.0890 nb         1 MK3      -0.800000
      7 O2          -6.8000    -1.3920    -1.1180 o          1 MK3      -0.533100
      8 C3           6.1550    -1.2130     0.5350 ca         1 MK3      -0.495600
      9 N3           3.1470    -3.6890    -0.4520 nv         1 MK3      -0.945500
     10 C4           4.8430    -0.7400     0.3230 ca         1 MK3       0.754200
     11 N4           4.6040     0.5890     0.4440 nu         1 MK3      -0.740300
     12 C5           3.4360     1.3380     0.2810 ca         1 MK3       0.139600
     13 N5          -6.8920    -0.0630     0.7440 ne         1 MK3      -0.657100
     14 C6           2.1810     0.8150    -0.0200 ca         1 MK3      -0.104000
     15 C7           1.0620     1.6380    -0.1540 cp         1 MK3      -0.053000
     16 C8           1.1970     3.0190     0.0050 ca         1 MK3       0.126100
     17 C9           2.4500     3.5450     0.3050 ca         1 MK3      -0.195000
     18 C10          3.5490     2.7200     0.4430 ca         1 MK3      -0.143000
     19 C11         -0.2360     1.0150    -0.4930 cp         1 MK3      -0.002000
     20 C12         -0.2970     0.0960    -1.5620 ca         1 MK3      -0.126000
     21 C13         -1.4680    -0.5380    -1.9040 ca         1 MK3      -0.085000
     22 C14         -1.3820     1.2880     0.2380 ca         1 MK3      -0.077000
     23 C15         -2.5660     0.6450    -0.1060 ca         1 MK3      -0.034100
     24 C16         -2.6330    -0.2690    -1.1740 ca         1 MK3      -0.095800
     25 C17         -3.9450    -0.7990    -1.3410 cc         1 MK3      -0.045200
     26 C18         -4.8240    -0.3080    -0.4300 cd         1 MK3      -0.150600
     27 C19         -6.2390    -0.6760    -0.3180 c          1 MK3       0.731700
     28 C20         -7.4150    -0.7420     1.6700 c2         1 MK3       0.515100
     29 HO1          0.3480     4.7290    -0.0360 ho         1 MK3       0.424000
     30 H2           7.3160    -2.9980     0.5540 h4         1 MK3       0.018100
     31 H3           6.9730    -0.5530     0.7880 ha         1 MK3       0.148000
     32 HN3          2.2040    -3.3490    -0.3760 hn         1 MK3       0.436300
     33 HN3A         3.2780    -4.6790    -0.3400 hn         1 MK3       0.436300
     34 HN4          5.4170     1.1380     0.6780 hn         1 MK3       0.441800
     35 H6           2.0600    -0.2500    -0.1360 ha         1 MK3       0.175000
     36 H9           2.5750     4.6150     0.4240 ha         1 MK3       0.133000
     37 H10          4.5090     3.1630     0.6820 ha         1 MK3       0.129000
     38 H12          0.6000    -0.1020    -2.1350 ha         1 MK3       0.140000
     39 H13         -1.4940    -1.2350    -2.7320 ha         1 MK3       0.137000
     40 H14         -1.3580     1.9720     1.0760 ha         1 MK3       0.148000
     41 H17         -4.2100    -1.5170    -2.1040 ha         1 MK3       0.168000
     42 H20         -7.3490    -1.8270     1.7350 h4         1 MK3      -0.008700
     43 H20A        -7.9550    -0.2290     2.4580 h4         1 MK3      -0.008700
@<TRIPOS>BOND
     1     1     2 ar  
     2     1     6 ar  
     3     1     9 1   
     4     2    10 ar  
     5     3    16 1   
     6     3    29 1   
     7     4    23 1   
     8     4    26 1   
     9     5     6 ar  
    10     5     8 ar  
    11     5    30 1   
    12     7    27 2   
    13     8    10 ar  
    14     8    31 1   
    15     9    32 1   
    16     9    33 1   
    17    10    11 1   
    18    11    12 1   
    19    11    34 1   
    20    12    14 ar  
    21    12    18 ar  
    22    13    27 1   
    23    13    28 2   
    24    14    15 ar  
    25    14    35 1   
    26    15    16 ar  
    27    15    19 1   
    28    16    17 ar  
    29    17    18 ar  
    30    17    36 1   
    31    18    37 1   
    32    19    20 ar  
    33    19    22 ar  
    34    20    21 ar  
    35    20    38 1   
    36    21    24 ar  
    37    21    39 1   
    38    22    23 ar  
    39    22    40 1   
    40    23    24 ar  
    41    24    25 1   
    42    25    26 2   
    43    25    41 1   
    44    26    27 1   
    45    28    42 1   
    46    28    43 1   
@<TRIPOS>SUBSTRUCTURE
     1 MK3         1 TEMP              0 ****  ****    0 ROOT
