@<TRIPOS>MOLECULE
MK4
   35    36     1     0     0
SMALL
abcg2


@<TRIPOS>ATOM
      1 O24          7.3640     2.7280    -0.7070 o          1 MK4      -0.704500
      2 C23          6.1570     2.4750    -0.5230 c          1 MK4       0.730000
      3 O25          5.2020     3.2630    -0.5010 o          1 MK4      -0.704500
      4 C22          5.8780     0.9780    -0.3170 c3         1 MK4      -0.002400
      5 O21          4.5080     0.7540    -0.0270 os         1 MK4      -0.268100
      6 C20          4.0820    -0.4940     0.1580 ca         1 MK4       0.228100
      7 C19          4.8980    -1.6200     0.0470 ca         1 MK4      -0.225000
      8 C17          4.3480    -2.8800     0.2290 ca         1 MK4       0.182000
      9 CL           5.3860    -4.2600     0.0910 cl         1 MK4      -0.234000
     10 C16          3.0080    -3.0670     0.5090 ca         1 MK4      -0.192000
     11 C15          2.2040    -1.9400     0.6090 ca         1 MK4      -0.047000
     12 C14          2.7180    -0.6620     0.4490 ca         1 MK4      -0.215600
     13 C12          1.8290     0.5220     0.6570 c          1 MK4       0.639700
     14 O13          2.0720     1.3860     1.4810 o          1 MK4      -0.554100
     15 N11          0.7210     0.5110    -0.1100 ns         1 MK4      -0.514900
     16 C10         -0.3370     1.4870     0.0020 c3         1 MK4       0.135300
     17 C09         -1.6820     0.8120    -0.0950 ca         1 MK4      -0.026300
     18 C02         -2.4840     0.8690    -1.2370 ca         1 MK4      -0.017900
     19 BR1         -1.9240     1.8040    -2.7810 br         1 MK4      -0.066100
     20 C03         -3.7200     0.2410    -1.3210 ca         1 MK4      -0.058500
     21 C04         -4.1710    -0.4810    -0.2310 ca         1 MK4      -0.025900
     22 BR5         -5.8430    -1.3380    -0.3200 br         1 MK4      -0.093100
     23 C06         -3.4120    -0.5900     0.9220 ca         1 MK4      -0.058500
     24 C07         -2.1850     0.0520     0.9660 ca         1 MK4      -0.017900
     25 BR8         -1.1860    -0.1440     2.5540 br         1 MK4      -0.066100
     26 H2           6.1690     0.4370    -1.2270 h1         1 MK4       0.022200
     27 H3           6.5050     0.5990     0.4980 h1         1 MK4       0.022200
     28 H4           5.9500    -1.5290    -0.1830 ha         1 MK4       0.143000
     29 H5           2.5960    -4.0560     0.6510 ha         1 MK4       0.117000
     30 H6           1.1530    -2.0680     0.8350 ha         1 MK4       0.108000
     31 H7           0.6560    -0.1660    -0.8540 hn         1 MK4       0.315500
     32 H8          -0.2420     1.9960     0.9600 h1         1 MK4       0.081700
     33 H9          -0.2330     2.2600    -0.7580 h1         1 MK4       0.081700
     34 H10         -4.3140     0.3120    -2.2220 ha         1 MK4       0.143500
     35 H11         -3.7660    -1.1650     1.7670 ha         1 MK4       0.143500
@<TRIPOS>BOND
     1     1     2 1   
     2     2     3 1   
     3     2     4 1   
     4     4     5 1   
     5     4    26 1   
     6     4    27 1   
     7     5     6 1   
     8     6     7 ar  
     9     6    12 ar  
    10     7     8 ar  
    11     7    28 1   
    12     8     9 1   
    13     8    10 ar  
    14    10    11 ar  
    15    10    29 1   
    16    11    12 ar  
    17    11    30 1   
    18    12    13 1   
    19    13    14 2   
    20    13    15 1   
    21    15    16 1   
    22    15    31 1   
    23    16    17 1   
    24    16    32 1   
    25    16    33 1   
    26    17    18 ar  
    27    17    24 ar  
    28    18    19 1   
    29    18    20 ar  
    30    20    21 ar  
    31    20    34 1   
    32    21    22 1   
    33    21    23 ar  
    34    23    24 ar  
    35    23    35 1   
    36    24    25 1   
@<TRIPOS>SUBSTRUCTURE
     1 MK4         1 TEMP              0 ****  ****    0 ROOT
