@<TRIPOS>MOLECULE
MK4
   35    36     1     0     0
SMALL
No Charge or Current Charge


@<TRIPOS>ATOM
      1 O24          7.6120     2.8380    -0.8570 o          1 MK4      -0.704500
      2 C23          6.4440     2.5480    -0.6300 c          1 MK4       0.730000
      3 O25          5.5520     3.3840    -0.5600 o          1 MK4      -0.704500
      4 C22          6.1080     1.0420    -0.4270 c3         1 MK4      -0.002400
      5 O21          4.7110     0.8020    -0.1260 os         1 MK4      -0.268100
      6 C20          4.1960    -0.4660     0.0770 ca         1 MK4       0.228100
      7 C19          5.0240    -1.6060    -0.0310 ca         1 MK4      -0.225000
      8 C17          4.4910    -2.8880     0.1350 ca         1 MK4       0.182000
      9 Cl           5.5360    -4.2950    -0.0030 cl         1 MK4      -0.234000
     10 C16          3.1310    -3.0540     0.4080 ca         1 MK4      -0.192000
     11 C15          2.2950    -1.9340     0.5200 ca         1 MK4      -0.047000
     12 C14          2.8140    -0.6250     0.3580 ca         1 MK4      -0.215600
     13 C12          1.8980     0.5710     0.4970 c          1 MK4       0.639700
     14 O13          2.2770     1.6830     0.8340 o          1 MK4      -0.554100
     15 N11          0.5620     0.3230     0.2800 ns         1 MK4      -0.514900
     16 C10         -0.4970     1.3250     0.4090 c3         1 MK4       0.135300
     17 C09         -1.8730     0.7230     0.1200 ca         1 MK4      -0.026300
     18 C02         -2.4140     0.7440    -1.1900 ca         1 MK4      -0.017900
     19 Br1         -1.4520     1.5000    -2.6730 br         1 MK4      -0.066100
     20 C03         -3.6790     0.1890    -1.4480 ca         1 MK4      -0.058500
     21 C04         -4.4160    -0.3980    -0.4100 ca         1 MK4      -0.025900
     22 Br5         -6.1360    -1.1550    -0.7680 br         1 MK4      -0.093100
     23 C06         -3.8890    -0.4400     0.8890 ca         1 MK4      -0.058500
     24 C07         -2.6250     0.1130     1.1560 ca         1 MK4      -0.017900
     25 Br8         -1.9550    -0.0110     2.9530 br         1 MK4      -0.066100
     26 H2           6.3910     0.5170    -1.3480 h1         1 MK4       0.022200
     27 H3           6.7400     0.6690     0.3900 h1         1 MK4       0.022200
     28 H4           6.0830    -1.5190    -0.2480 ha         1 MK4       0.143000
     29 H5           2.7230    -4.0530     0.5400 ha         1 MK4       0.117000
     30 H6           1.2460    -2.1000     0.7570 ha         1 MK4       0.108000
     31 H7           0.3100    -0.6120    -0.0110 hn         1 MK4       0.315500
     32 H8          -0.4700     1.7480     1.4210 h1         1 MK4       0.081700
     33 H9          -0.2880     2.1590    -0.2730 h1         1 MK4       0.081700
     34 H10         -4.0860     0.2100    -2.4570 ha         1 MK4       0.143500
     35 H11         -4.4590    -0.9050     1.6900 ha         1 MK4       0.143500
@<TRIPOS>BOND
     1     1     2 1   
     2     2     3 1   
     3     2     4 1   
     4     4     5 1   
     5     4    26 1   
     6     4    27 1   
     7     5     6 1   
     8     6     7 ar  
     9     6    12 ar  
    10     7     8 ar  
    11     7    28 1   
    12     8     9 1   
    13     8    10 ar  
    14    10    11 ar  
    15    10    29 1   
    16    11    12 ar  
    17    11    30 1   
    18    12    13 1   
    19    13    14 2   
    20    13    15 1   
    21    15    16 1   
    22    15    31 1   
    23    16    17 1   
    24    16    32 1   
    25    16    33 1   
    26    17    18 ar  
    27    17    24 ar  
    28    18    19 1   
    29    18    20 ar  
    30    20    21 ar  
    31    20    34 1   
    32    21    22 1   
    33    21    23 ar  
    34    23    24 ar  
    35    23    35 1   
    36    24    25 1   
@<TRIPOS>SUBSTRUCTURE
     1 MK4         1 TEMP              0 ****  ****    0 ROOT
