@<TRIPOS>MOLECULE
MK5
   77    78     1     0     0
SMALL
No Charge or Current Charge


@<TRIPOS>ATOM
      1 C1          10.8120    -0.4790     0.9240 c3         1 MK5       0.145900
      2 O1           9.7200    -1.3860     0.6910 os         1 MK5      -0.335100
      3 C2           8.4030    -0.9760     0.7300 ca         1 MK5       0.196100
      4 C7           7.4110    -1.9360     0.4820 ca         1 MK5      -0.199000
      5 C6           6.0530    -1.5820     0.5040 ca         1 MK5       0.024000
      6 C3           8.0280     0.3560     1.0090 ca         1 MK5      -0.199000
      7 C4           6.6700     0.7170     1.0340 ca         1 MK5       0.024000
      8 C5           5.6820    -0.2520     0.7710 ca         1 MK5      -0.338500
      9 S8           3.9410     0.1890     0.7880 sy         1 MK5       1.194600
     10 O9           3.2670    -0.7710     1.6690 o          1 MK5      -0.541000
     11 O10          3.7660     1.6320     0.9830 o          1 MK5      -0.541000
     12 N11          3.4230    -0.1910    -0.8010 n3         1 MK5      -0.781500
     13 C12          3.6270     0.8760    -1.8190 c3         1 MK5       0.234800
     14 C13          5.0960     1.1910    -2.2180 c3         1 MK5      -0.089700
     15 C14          5.8050    -0.0510    -2.8210 c3         1 MK5      -0.087100
     16 C15          5.1480     2.4140    -3.1750 c3         1 MK5      -0.070400
     17 C18          6.5710     2.9190    -3.5000 c3         1 MK5      -0.088100
     18 C16          2.0700    -0.8150    -0.8810 c3         1 MK5       0.203800
     19 C17          0.8410     0.0770    -0.4870 c3         1 MK5       0.139300
     20 O18          0.5630     1.0770    -1.4980 oh         1 MK5      -0.647000
     21 C19         -0.4420    -0.7610    -0.1940 c3         1 MK5       0.092700
     22 C32         -0.9320    -1.6440    -1.3770 c3         1 MK5      -0.057100
     23 C38         -2.2650    -2.3400    -1.1020 ca         1 MK5      -0.091300
     24 C33         -3.3960    -2.0520    -1.8930 ca         1 MK5      -0.099500
     25 C34         -4.6240    -2.6830    -1.6320 ca         1 MK5      -0.108000
     26 C35         -4.7330    -3.6030    -0.5760 ca         1 MK5      -0.098000
     27 C36         -3.6100    -3.8970     0.2150 ca         1 MK5      -0.108000
     28 C37         -2.3790    -3.2700    -0.0490 ca         1 MK5      -0.099500
     29 N20         -1.5330     0.1010     0.2810 ns         1 MK5      -0.482900
     30 C21         -2.1610    -0.0210     1.4860 c          1 MK5       0.645100
     31 O22         -1.8470    -0.7980     2.3740 o          1 MK5      -0.532000
     32 O23         -3.2300     0.8200     1.5060 os         1 MK5      -0.472100
     33 C23         -4.0850     0.7920     2.6650 c3         1 MK5       0.159600
     34 C24         -5.3450     1.6300     2.3500 c3         1 MK5       0.098000
     35 N25         -6.0600     1.1640     1.1490 ns         1 MK5      -0.495900
     36 C26         -6.7400    -0.0370     1.0530 c          1 MK5       0.600100
     37 O27         -6.8690    -0.7750     2.0240 o          1 MK5      -0.552100
     38 C28         -7.3100    -0.3600    -0.3520 c3         1 MK5       0.207300
     39 Cl2         -8.1640    -1.9730    -0.4380 cl         1 MK5      -0.200000
     40 Cl1         -8.4550     0.9300    -0.9440 cl         1 MK5      -0.200000
     41 H1          10.8100     0.3320     0.1850 h1         1 MK5       0.046700
     42 H2          10.7500    -0.0430     1.9290 h1         1 MK5       0.046700
     43 H3          11.7700    -1.0090     0.8430 h1         1 MK5       0.046700
     44 H4           7.6980    -2.9620     0.2690 ha         1 MK5       0.128000
     45 H5           5.2930    -2.3360     0.3030 ha         1 MK5       0.133500
     46 H6           8.7720     1.1220     1.2090 ha         1 MK5       0.128000
     47 H7           6.3950     1.7480     1.2490 ha         1 MK5       0.133500
     48 H8           3.1120     0.5920    -2.7470 h1         1 MK5       0.062200
     49 H9           3.1480     1.8070    -1.4840 h1         1 MK5       0.062200
     50 H10          5.6390     1.4850    -1.3150 hc         1 MK5       0.052700
     51 H11          5.3790    -0.3050    -3.7980 hc         1 MK5       0.034033
     52 H12          6.8790     0.1300    -2.9470 hc         1 MK5       0.034033
     53 H13          5.6960    -0.9250    -2.1700 hc         1 MK5       0.034033
     54 H14          4.6330     2.1700    -4.1120 hc         1 MK5       0.041200
     55 H15          4.5920     3.2440    -2.7200 hc         1 MK5       0.041200
     56 H16          6.5190     3.8420    -4.0910 hc         1 MK5       0.033700
     57 H17          7.1280     3.1340    -2.5800 hc         1 MK5       0.033700
     58 H18          7.1320     2.1800    -4.0830 hc         1 MK5       0.033700
     59 H19          1.9070    -1.1800    -1.9040 h1         1 MK5       0.051700
     60 H20          2.0500    -1.7170    -0.2550 h1         1 MK5       0.051700
     61 H21          1.0910     0.5790     0.4580 h1         1 MK5       0.117700
     62 H22          0.3160     0.6070    -2.3220 ho         1 MK5       0.431000
     63 H23         -0.1820    -1.4480     0.6240 h1         1 MK5       0.096700
     64 H24         -1.0190    -1.0260    -2.2780 hc         1 MK5       0.046700
     65 H25         -0.1720    -2.4020    -1.6030 hc         1 MK5       0.046700
     66 H26         -3.3250    -1.3380    -2.7100 ha         1 MK5       0.107000
     67 H27         -5.4910    -2.4610    -2.2510 ha         1 MK5       0.111500
     68 H28         -5.6840    -4.0910    -0.3740 ha         1 MK5       0.120000
     69 H29         -3.6920    -4.6100     1.0320 ha         1 MK5       0.111500
     70 H30         -1.5160    -3.5050     0.5700 ha         1 MK5       0.107000
     71 H31         -1.9140     0.7960    -0.3470 hn         1 MK5       0.325500
     72 H32         -4.3900    -0.2360     2.9020 h1         1 MK5       0.067700
     73 H33         -3.5730     1.2070     3.5430 h1         1 MK5       0.067700
     74 H34         -6.0280     1.5930     3.2100 h1         1 MK5       0.070200
     75 H35         -5.0510     2.6770     2.2030 h1         1 MK5       0.070200
     76 H36         -5.9990     1.7260     0.3070 hn         1 MK5       0.324500
     77 H37         -6.4820    -0.4040    -1.0660 h2         1 MK5       0.094700
@<TRIPOS>BOND
     1     1     2 1   
     2     1    41 1   
     3     1    42 1   
     4     1    43 1   
     5     2     3 1   
     6     3     4 ar  
     7     3     6 ar  
     8     4     5 ar  
     9     4    44 1   
    10     5     8 ar  
    11     5    45 1   
    12     6     7 ar  
    13     6    46 1   
    14     7     8 ar  
    15     7    47 1   
    16     8     9 1   
    17     9    10 2   
    18     9    11 2   
    19     9    12 1   
    20    12    13 1   
    21    12    18 1   
    22    13    14 1   
    23    13    48 1   
    24    13    49 1   
    25    14    15 1   
    26    14    16 1   
    27    14    50 1   
    28    15    51 1   
    29    15    52 1   
    30    15    53 1   
    31    16    17 1   
    32    16    54 1   
    33    16    55 1   
    34    17    56 1   
    35    17    57 1   
    36    17    58 1   
    37    18    19 1   
    38    18    59 1   
    39    18    60 1   
    40    19    20 1   
    41    19    21 1   
    42    19    61 1   
    43    20    62 1   
    44    21    22 1   
    45    21    29 1   
    46    21    63 1   
    47    22    23 1   
    48    22    64 1   
    49    22    65 1   
    50    23    24 ar  
    51    23    28 ar  
    52    24    25 ar  
    53    24    66 1   
    54    25    26 ar  
    55    25    67 1   
    56    26    27 ar  
    57    26    68 1   
    58    27    28 ar  
    59    27    69 1   
    60    28    70 1   
    61    29    30 1   
    62    29    71 1   
    63    30    31 2   
    64    30    32 1   
    65    32    33 1   
    66    33    34 1   
    67    33    72 1   
    68    33    73 1   
    69    34    35 1   
    70    34    74 1   
    71    34    75 1   
    72    35    36 1   
    73    35    76 1   
    74    36    37 2   
    75    36    38 1   
    76    38    39 1   
    77    38    40 1   
    78    38    77 1   
@<TRIPOS>SUBSTRUCTURE
     1 MK5         1 TEMP              0 ****  ****    0 ROOT
