@<TRIPOS>MOLECULE
MK5
   77    78     1     0     0
SMALL
bcc


@<TRIPOS>ATOM
      1 C1           9.5850    -2.4290     0.6200 c3         1 MK5       0.122700
      2 O1           8.2300    -2.6730     0.9550 os         1 MK5      -0.311900
      3 C2           7.3700    -1.6490     0.9570 ca         1 MK5       0.196100
      4 C7           6.0530    -1.9500     1.3210 ca         1 MK5      -0.217000
      5 C6           5.0960    -0.9590     1.3560 ca         1 MK5       0.006000
      6 C3           7.7110    -0.3350     0.6370 ca         1 MK5      -0.217000
      7 C4           6.7420     0.6560     0.6660 ca         1 MK5       0.006000
      8 C5           5.4360     0.3490     1.0090 ca         1 MK5      -0.338500
      9 S8           4.1890     1.6020     0.9960 sy         1 MK5       1.336200
     10 O9           3.2680     1.2790     2.0770 o          1 MK5      -0.611800
     11 O10          4.8570     2.8940     0.9760 o          1 MK5      -0.611800
     12 N11          3.3540     1.4660    -0.4080 n3         1 MK5      -0.781500
     13 C12          3.7680     2.2100    -1.5970 c3         1 MK5       0.234800
     14 C13          5.0570     1.7410    -2.2740 c3         1 MK5      -0.089700
     15 C14          5.0130     0.2590    -2.6240 c3         1 MK5      -0.087100
     16 C15          5.2970     2.6260    -3.5000 c3         1 MK5      -0.070400
     17 C18          6.6350     2.3870    -4.1880 c3         1 MK5      -0.088100
     18 C16          2.2960     0.4680    -0.5010 c3         1 MK5       0.203800
     19 C17          0.9230     1.0230    -0.1320 c3         1 MK5       0.116100
     20 O18          0.4960     2.0210    -1.0330 oh         1 MK5      -0.584800
     21 C19         -0.1140    -0.0950     0.0380 c3         1 MK5       0.092700
     22 C32         -0.2790    -0.9790    -1.2110 c3         1 MK5      -0.057100
     23 C38         -1.4200    -1.9430    -1.0580 ca         1 MK5      -0.091300
     24 C33         -2.6730    -1.6470    -1.5870 ca         1 MK5      -0.117500
     25 C34         -3.7500    -2.4990    -1.3850 ca         1 MK5      -0.126000
     26 C35         -3.5900    -3.6630    -0.6470 ca         1 MK5      -0.116000
     27 C36         -2.3410    -3.9740    -0.1240 ca         1 MK5      -0.126000
     28 C37         -1.2670    -3.1190    -0.3280 ca         1 MK5      -0.117500
     29 N20         -1.3750     0.4810     0.4390 ns         1 MK5      -0.549900
     30 C21         -2.1230    -0.0380     1.4320 c          1 MK5       0.761100
     31 O22         -1.7500    -0.8620     2.2400 o          1 MK5      -0.581000
     32 O23         -3.3450     0.5060     1.4370 os         1 MK5      -0.448900
     33 C23         -4.2480     0.0710     2.4480 c3         1 MK5       0.136400
     34 C24         -5.6160     0.6180     2.1030 c3         1 MK5       0.098000
     35 N25         -6.1510     0.0800     0.8700 ns         1 MK5      -0.562900
     36 C26         -6.8300    -1.0680     0.8270 c          1 MK5       0.667100
     37 O27         -7.0350    -1.8000     1.7730 o          1 MK5      -0.552100
     38 C28         -7.4140    -1.3720    -0.5560 c3         1 MK5       0.054100
     39 CL2         -7.3980    -3.1100    -0.8520 cl         1 MK5      -0.123400
     40 CL1         -9.0840    -0.7600    -0.5740 cl         1 MK5      -0.123400
     41 H1           9.6890    -2.0450    -0.3980 h1         1 MK5       0.046700
     42 H2          10.0540    -1.7290     1.3150 h1         1 MK5       0.046700
     43 H3          10.0940    -3.3860     0.6880 h1         1 MK5       0.046700
     44 H4           5.7910    -2.9650     1.5880 ha         1 MK5       0.146000
     45 H5           4.0930    -1.2150     1.6690 ha         1 MK5       0.151500
     46 H6           8.7220    -0.0590     0.3710 ha         1 MK5       0.146000
     47 H7           7.0310     1.6700     0.4240 ha         1 MK5       0.151500
     48 H8           2.9440     2.1210    -2.3050 h1         1 MK5       0.062200
     49 H9           3.8420     3.2700    -1.3530 h1         1 MK5       0.062200
     50 H10          5.8930     1.9090    -1.5880 hc         1 MK5       0.052700
     51 H11          4.2150     0.0480    -3.3410 hc         1 MK5       0.034033
     52 H12          5.9510    -0.0710    -3.0710 hc         1 MK5       0.034033
     53 H13          4.8530    -0.3610    -1.7420 hc         1 MK5       0.034033
     54 H14          4.4820     2.4770    -4.2170 hc         1 MK5       0.041200
     55 H15          5.2410     3.6740    -3.1920 hc         1 MK5       0.041200
     56 H16          6.7870     3.1000    -4.9990 hc         1 MK5       0.033700
     57 H17          7.4640     2.5020    -3.4870 hc         1 MK5       0.033700
     58 H18          6.7020     1.3880    -4.6190 hc         1 MK5       0.033700
     59 H19          2.2960     0.0850    -1.5240 h1         1 MK5       0.051700
     60 H20          2.5240    -0.3980     0.1230 h1         1 MK5       0.051700
     61 H21          1.0060     1.5230     0.8350 h1         1 MK5       0.117700
     62 H22          0.4780     1.6630    -1.9270 ho         1 MK5       0.392000
     63 H23          0.2300    -0.7220     0.8620 h1         1 MK5       0.096700
     64 H24         -0.4470    -0.3540    -2.0930 hc         1 MK5       0.046700
     65 H25          0.6520    -1.5250    -1.3850 hc         1 MK5       0.046700
     66 H26         -2.8090    -0.7410    -2.1660 ha         1 MK5       0.125000
     67 H27         -4.7140    -2.2580    -1.8160 ha         1 MK5       0.129500
     68 H28         -4.4300    -4.3250    -0.4840 ha         1 MK5       0.138000
     69 H29         -2.2020    -4.8830     0.4470 ha         1 MK5       0.129500
     70 H30         -0.2970    -3.3680     0.0870 ha         1 MK5       0.125000
     71 H31         -1.8200     1.1180    -0.2050 hn         1 MK5       0.325500
     72 H32         -4.2770    -1.0180     2.5010 h1         1 MK5       0.067700
     73 H33         -3.9430     0.4530     3.4260 h1         1 MK5       0.067700
     74 H34         -6.2950     0.3860     2.9240 h1         1 MK5       0.070200
     75 H35         -5.5840     1.7020     2.0090 h1         1 MK5       0.070200
     76 H36         -6.0040     0.6070     0.0240 hn         1 MK5       0.324500
     77 H37         -6.8800    -0.8840    -1.3690 h2         1 MK5       0.094700
@<TRIPOS>BOND
     1     1     2 1   
     2     1    41 1   
     3     1    42 1   
     4     1    43 1   
     5     2     3 1   
     6     3     4 ar  
     7     3     6 ar  
     8     4     5 ar  
     9     4    44 1   
    10     5     8 ar  
    11     5    45 1   
    12     6     7 ar  
    13     6    46 1   
    14     7     8 ar  
    15     7    47 1   
    16     8     9 1   
    17     9    10 2   
    18     9    11 2   
    19     9    12 1   
    20    12    13 1   
    21    12    18 1   
    22    13    14 1   
    23    13    48 1   
    24    13    49 1   
    25    14    15 1   
    26    14    16 1   
    27    14    50 1   
    28    15    51 1   
    29    15    52 1   
    30    15    53 1   
    31    16    17 1   
    32    16    54 1   
    33    16    55 1   
    34    17    56 1   
    35    17    57 1   
    36    17    58 1   
    37    18    19 1   
    38    18    59 1   
    39    18    60 1   
    40    19    20 1   
    41    19    21 1   
    42    19    61 1   
    43    20    62 1   
    44    21    22 1   
    45    21    29 1   
    46    21    63 1   
    47    22    23 1   
    48    22    64 1   
    49    22    65 1   
    50    23    24 ar  
    51    23    28 ar  
    52    24    25 ar  
    53    24    66 1   
    54    25    26 ar  
    55    25    67 1   
    56    26    27 ar  
    57    26    68 1   
    58    27    28 ar  
    59    27    69 1   
    60    28    70 1   
    61    29    30 1   
    62    29    71 1   
    63    30    31 2   
    64    30    32 1   
    65    32    33 1   
    66    33    34 1   
    67    33    72 1   
    68    33    73 1   
    69    34    35 1   
    70    34    74 1   
    71    34    75 1   
    72    35    36 1   
    73    35    76 1   
    74    36    37 2   
    75    36    38 1   
    76    38    39 1   
    77    38    40 1   
    78    38    77 1   
@<TRIPOS>SUBSTRUCTURE
     1 MK5         1 TEMP              0 ****  ****    0 ROOT
