@<TRIPOS>MOLECULE
MK6
   67    71     1     0     0
SMALL
abcg2


@<TRIPOS>ATOM
      1 O5          11.3980    -2.2010    -0.4520 o          1 MK6      -0.728000
      2 C28         11.0880    -1.0000    -0.3210 c          1 MK6       0.734000
      3 O4          11.8490    -0.0630    -0.0040 o          1 MK6      -0.728000
      4 C27          9.6400    -0.6310    -0.5720 cx         1 MK6      -0.185700
      5 C2           8.8990    -1.3580    -1.6570 cx         1 MK6      -0.128700
      6 C1           8.5700    -1.6440    -0.2200 cx         1 MK6      -0.092400
      7 C            7.2260    -1.0680     0.0050 ca         1 MK6      -0.107300
      8 C7           6.4380    -1.0250     1.1300 ca         1 MK6       0.367900
      9 N            5.2490    -0.4080     1.1520 nb         1 MK6      -0.773000
     10 C6           4.8300     0.1880     0.0590 ca         1 MK6       0.553300
     11 C5           5.5440     0.2020    -1.1500 ca         1 MK6      -0.179000
     12 C4           6.7520    -0.4520    -1.1620 ca         1 MK6      -0.032300
     13 C3           7.7160    -0.6500    -2.2990 c5         1 MK6      -0.014100
     14 O            3.6510     0.8260     0.0620 os         1 MK6      -0.475300
     15 C8           2.9290     0.9000     1.2890 c3         1 MK6       0.219900
     16 C9           1.7440     1.7840     1.0400 ca         1 MK6      -0.087300
     17 C26          1.8870     3.1680     1.0620 ca         1 MK6      -0.083000
     18 C25          0.7990     3.9880     0.8040 ca         1 MK6      -0.122000
     19 C24         -0.4410     3.4300     0.5220 ca         1 MK6      -0.100000
     20 C11         -0.6060     2.0480     0.4970 cp         1 MK6      -0.042000
     21 C10          0.4970     1.2380     0.7550 ca         1 MK6      -0.080000
     22 C12         -1.9340     1.4520     0.2020 cp         1 MK6      -0.074000
     23 C17         -2.2410     1.0290    -1.0990 ca         1 MK6      -0.018300
     24 C18         -1.2350     1.1610    -2.2070 c3         1 MK6      -0.051300
     25 C16         -3.4880     0.4820    -1.3640 ca         1 MK6      -0.180000
     26 C15         -4.4370     0.3480    -0.3540 ca         1 MK6       0.146100
     27 C14         -4.1300     0.7640     0.9360 ca         1 MK6      -0.180000
     28 C13         -2.8810     1.3140     1.2190 ca         1 MK6      -0.018300
     29 C23         -2.5650     1.7350     2.6260 c3         1 MK6      -0.051300
     30 O1          -5.6190    -0.1940    -0.7170 os         1 MK6      -0.350100
     31 C19         -6.6380    -0.3300     0.2540 c3         1 MK6       0.174600
     32 C20         -7.8260    -0.9850    -0.4240 c3         1 MK6      -0.057400
     33 C21         -8.9700    -1.1270     0.5700 c3         1 MK6      -0.300400
     34 S          -10.3780    -1.9080    -0.2130 s6         1 MK6       1.084000
     35 O2         -10.8920    -1.0040    -1.2440 o          1 MK6      -0.513500
     36 O3          -9.9910    -3.2590    -0.6240 o          1 MK6      -0.513500
     37 C22        -11.5800    -2.0290     1.0900 c3         1 MK6      -0.339100
     38 H2           9.3810     0.4130    -0.4140 hc         1 MK6       0.064700
     39 H3           9.4580    -2.0760    -2.2420 hc         1 MK6       0.105700
     40 H4           8.8710    -2.5620     0.2710 hc         1 MK6       0.112700
     41 H5           6.7500    -1.4960     2.0570 h4         1 MK6       0.019100
     42 H6           5.1400     0.6960    -2.0240 ha         1 MK6       0.125000
     43 H7           7.9910     0.2960    -2.7720 hc         1 MK6       0.048200
     44 H8           7.2600    -1.2700    -3.0760 hc         1 MK6       0.048200
     45 H9           2.6150    -0.0960     1.6100 h1         1 MK6       0.051700
     46 H10          3.5620     1.3170     2.0760 h1         1 MK6       0.051700
     47 H11          2.8520     3.6070     1.2900 ha         1 MK6       0.121000
     48 H12          0.9150     5.0640     0.8250 ha         1 MK6       0.110000
     49 H13         -1.2910     4.0730     0.3270 ha         1 MK6       0.109000
     50 H14          0.3780     0.1600     0.7390 ha         1 MK6       0.119000
     51 H15         -0.3410     0.5700    -2.0030 hc         1 MK6       0.046533
     52 H16         -1.6490     0.8240    -3.1560 hc         1 MK6       0.046533
     53 H17         -0.9080     2.1940    -2.3330 hc         1 MK6       0.046533
     54 H18         -3.7350     0.1590    -2.3690 ha         1 MK6       0.118000
     55 H19         -4.8470     0.6720     1.7420 ha         1 MK6       0.118000
     56 H20         -2.2990     2.7920     2.6850 hc         1 MK6       0.046533
     57 H21         -3.4130     1.5680     3.2880 hc         1 MK6       0.046533
     58 H22         -1.7160     1.1760     3.0230 hc         1 MK6       0.046533
     59 H23         -6.2950    -0.9490     1.0910 h1         1 MK6       0.034200
     60 H24         -6.9180     0.6490     0.6590 h1         1 MK6       0.034200
     61 H25         -8.1430    -0.3780    -1.2740 hc         1 MK6       0.078200
     62 H26         -7.5330    -1.9670    -0.8000 hc         1 MK6       0.078200
     63 H27         -8.6910    -1.7480     1.4240 h1         1 MK6       0.093700
     64 H28         -9.3100    -0.1590     0.9420 h1         1 MK6       0.093700
     65 H29        -11.8380    -1.0320     1.4390 h1         1 MK6       0.103700
     66 H30        -12.4600    -2.5180     0.6720 h1         1 MK6       0.103700
     67 H31        -11.1760    -2.6270     1.9040 h1         1 MK6       0.103700
@<TRIPOS>BOND
     1     1     2 1   
     2     2     3 1   
     3     2     4 1   
     4     4     5 1   
     5     4     6 1   
     6     4    38 1   
     7     5     6 1   
     8     5    13 1   
     9     5    39 1   
    10     6     7 1   
    11     6    40 1   
    12     7     8 ar  
    13     7    12 ar  
    14     8     9 ar  
    15     8    41 1   
    16     9    10 ar  
    17    10    11 ar  
    18    10    14 1   
    19    11    12 ar  
    20    11    42 1   
    21    12    13 1   
    22    13    43 1   
    23    13    44 1   
    24    14    15 1   
    25    15    16 1   
    26    15    45 1   
    27    15    46 1   
    28    16    17 ar  
    29    16    21 ar  
    30    17    18 ar  
    31    17    47 1   
    32    18    19 ar  
    33    18    48 1   
    34    19    20 ar  
    35    19    49 1   
    36    20    21 ar  
    37    20    22 1   
    38    21    50 1   
    39    22    23 ar  
    40    22    28 ar  
    41    23    24 1   
    42    23    25 ar  
    43    24    51 1   
    44    24    52 1   
    45    24    53 1   
    46    25    26 ar  
    47    25    54 1   
    48    26    27 ar  
    49    26    30 1   
    50    27    28 ar  
    51    27    55 1   
    52    28    29 1   
    53    29    56 1   
    54    29    57 1   
    55    29    58 1   
    56    30    31 1   
    57    31    32 1   
    58    31    59 1   
    59    31    60 1   
    60    32    33 1   
    61    32    61 1   
    62    32    62 1   
    63    33    34 1   
    64    33    63 1   
    65    33    64 1   
    66    34    35 2   
    67    34    36 2   
    68    34    37 1   
    69    37    65 1   
    70    37    66 1   
    71    37    67 1   
@<TRIPOS>SUBSTRUCTURE
     1 MK6         1 TEMP              0 ****  ****    0 ROOT
