@<TRIPOS>MOLECULE
MK6
   67    71     1     0     0
SMALL
No Charge or Current Charge


@<TRIPOS>ATOM
      1 O5          11.3730    -1.9310     0.0130 o          1 MK6      -0.728000
      2 C28         10.8860    -1.7400    -1.0910 c          1 MK6       0.734000
      3 O4          11.4620    -1.9850    -2.1400 o          1 MK6      -0.728000
      4 C27          9.5110    -1.1030    -1.1650 cx         1 MK6      -0.185700
      5 C2           8.4070    -1.8210    -1.9220 cx         1 MK6      -0.128700
      6 C1           8.3640    -1.7520    -0.4110 cx         1 MK6      -0.092400
      7 C            7.1490    -1.0050    -0.0510 ca         1 MK6      -0.107300
      8 C7           6.5990    -0.7510     1.2150 ca         1 MK6       0.367900
      9 N            5.4570    -0.0340     1.3610 nb         1 MK6      -0.773000
     10 C6           4.8540     0.4370     0.2380 ca         1 MK6       0.553300
     11 C5           5.3630     0.2100    -1.0570 ca         1 MK6      -0.179000
     12 C4           6.5430    -0.5320    -1.1950 ca         1 MK6      -0.032300
     13 C3           7.2650    -0.9030    -2.4900 c5         1 MK6      -0.014100
     14 O            3.6960     1.1670     0.3430 os         1 MK6      -0.475300
     15 C8           3.1030     1.4410     1.6260 c3         1 MK6       0.219900
     16 C9           1.8360     2.2570     1.4060 ca         1 MK6      -0.087300
     17 C26          1.8570     3.6590     1.5410 ca         1 MK6      -0.083000
     18 C25          0.6850     4.4060     1.3370 ca         1 MK6      -0.122000
     19 C24         -0.5130     3.7570     0.9950 ca         1 MK6      -0.100000
     20 C11         -0.5580     2.3510     0.8510 cp         1 MK6      -0.042000
     21 C10          0.6310     1.6140     1.0630 ca         1 MK6      -0.080000
     22 C12         -1.8300     1.6590     0.4820 cp         1 MK6      -0.074000
     23 C17         -1.9710     1.0420    -0.7920 ca         1 MK6      -0.018300
     24 C18         -0.8480     1.0760    -1.8250 c3         1 MK6      -0.051300
     25 C16         -3.1720     0.3920    -1.1270 ca         1 MK6      -0.180000
     26 C15         -4.2410     0.3460    -0.2240 ca         1 MK6       0.146100
     27 C14         -4.1120     0.9550     1.0390 ca         1 MK6      -0.180000
     28 C13         -2.9170     1.6070     1.3980 ca         1 MK6      -0.018300
     29 C23         -2.8190     2.2350     2.7860 c3         1 MK6      -0.051300
     30 O1          -5.3900    -0.3070    -0.6230 os         1 MK6      -0.350100
     31 C19         -6.5460    -0.4120     0.2260 c3         1 MK6       0.174600
     32 C20         -7.6220    -1.1980    -0.5470 c3         1 MK6      -0.057400
     33 C21         -8.9320    -1.3820     0.2660 c3         1 MK6      -0.300400
     34 S          -10.2060    -2.3030    -0.6280 s6         1 MK6       1.084000
     35 O2         -10.6180    -1.5030    -1.7880 o          1 MK6      -0.513500
     36 O3          -9.7200    -3.6740    -0.8300 o          1 MK6      -0.513500
     37 C22        -11.5870    -2.3740     0.5090 c3         1 MK6      -0.339100
     38 H2           9.5210    -0.0180    -1.2030 hc         1 MK6       0.064700
     39 H3           8.6380    -2.7720    -2.4000 hc         1 MK6       0.105700
     40 H4           8.5420    -2.6690     0.1500 hc         1 MK6       0.112700
     41 H5           7.0720    -1.1230     2.1230 h4         1 MK6       0.019100
     42 H6           4.8450     0.6050    -1.9240 ha         1 MK6       0.125000
     43 H7           7.6540    -0.0270    -3.0200 hc         1 MK6       0.048200
     44 H8           6.6090    -1.4450    -3.1800 hc         1 MK6       0.048200
     45 H9           2.8470     0.5070     2.1440 h1         1 MK6       0.051700
     46 H10          3.7970     2.0030     2.2650 h1         1 MK6       0.051700
     47 H11          2.7820     4.1690     1.8020 ha         1 MK6       0.121000
     48 H12          0.7060     5.4890     1.4410 ha         1 MK6       0.110000
     49 H13         -1.4140     4.3430     0.8330 ha         1 MK6       0.109000
     50 H14          0.6110     0.5320     0.9570 ha         1 MK6       0.119000
     51 H15         -0.0470     0.3770    -1.5570 hc         1 MK6       0.046533
     52 H16         -1.2060     0.8020    -2.8240 hc         1 MK6       0.046533
     53 H17         -0.4090     2.0780    -1.9030 hc         1 MK6       0.046533
     54 H18         -3.2830    -0.0810    -2.0990 ha         1 MK6       0.118000
     55 H19         -4.9300     0.9290     1.7530 ha         1 MK6       0.118000
     56 H20         -2.9030     3.3260     2.7280 hc         1 MK6       0.046533
     57 H21         -3.6130     1.8770     3.4520 hc         1 MK6       0.046533
     58 H22         -1.8630     1.9950     3.2650 hc         1 MK6       0.046533
     59 H23         -6.3000    -0.9440     1.1540 h1         1 MK6       0.034200
     60 H24         -6.9330     0.5830     0.4810 h1         1 MK6       0.034200
     61 H25         -7.8400    -0.6700    -1.4840 hc         1 MK6       0.078200
     62 H26         -7.2140    -2.1810    -0.8180 hc         1 MK6       0.078200
     63 H27         -8.7390    -1.9400     1.1900 h1         1 MK6       0.093700
     64 H28         -9.3720    -0.4100     0.5150 h1         1 MK6       0.093700
     65 H29        -11.8900    -1.3450     0.7310 h1         1 MK6       0.103700
     66 H30        -12.3940    -2.9250     0.0150 h1         1 MK6       0.103700
     67 H31        -11.2500    -2.8920     1.4130 h1         1 MK6       0.103700
@<TRIPOS>BOND
     1     1     2 1   
     2     2     3 1   
     3     2     4 1   
     4     4     5 1   
     5     4     6 1   
     6     4    38 1   
     7     5     6 1   
     8     5    13 1   
     9     5    39 1   
    10     6     7 1   
    11     6    40 1   
    12     7     8 ar  
    13     7    12 ar  
    14     8     9 ar  
    15     8    41 1   
    16     9    10 ar  
    17    10    11 ar  
    18    10    14 1   
    19    11    12 ar  
    20    11    42 1   
    21    12    13 1   
    22    13    43 1   
    23    13    44 1   
    24    14    15 1   
    25    15    16 1   
    26    15    45 1   
    27    15    46 1   
    28    16    17 ar  
    29    16    21 ar  
    30    17    18 ar  
    31    17    47 1   
    32    18    19 ar  
    33    18    48 1   
    34    19    20 ar  
    35    19    49 1   
    36    20    21 ar  
    37    20    22 1   
    38    21    50 1   
    39    22    23 ar  
    40    22    28 ar  
    41    23    24 1   
    42    23    25 ar  
    43    24    51 1   
    44    24    52 1   
    45    24    53 1   
    46    25    26 ar  
    47    25    54 1   
    48    26    27 ar  
    49    26    30 1   
    50    27    28 ar  
    51    27    55 1   
    52    28    29 1   
    53    29    56 1   
    54    29    57 1   
    55    29    58 1   
    56    30    31 1   
    57    31    32 1   
    58    31    59 1   
    59    31    60 1   
    60    32    33 1   
    61    32    61 1   
    62    32    62 1   
    63    33    34 1   
    64    33    63 1   
    65    33    64 1   
    66    34    35 2   
    67    34    36 2   
    68    34    37 1   
    69    37    65 1   
    70    37    66 1   
    71    37    67 1   
@<TRIPOS>SUBSTRUCTURE
     1 MK6         1 TEMP              0 ****  ****    0 ROOT
