@<TRIPOS>MOLECULE
MK7
   44    45     1     0     0
SMALL
No Charge or Current Charge


@<TRIPOS>ATOM
      1 C4           4.0980    13.6200    18.7350 c6         1 MK7      -0.055400
      2 C5           8.8970    17.9210    18.0410 c6         1 MK7       0.150300
      3 C6          10.5980    16.3330    17.2170 c6         1 MK7       0.150300
      4 C7           4.9660    11.7610    20.2550 c6         1 MK7       0.099000
      5 C8           6.5300    10.0420    19.3070 c          1 MK7       0.615900
      6 C10          6.1250    12.2110    18.0520 c6         1 MK7       0.025700
      7 C1           4.8490    12.9560    17.5560 c6         1 MK7      -0.076400
      8 C2           7.7930    16.8460    17.9120 c6         1 MK7      -0.128900
      9 C3           9.5310    15.2230    17.0720 c6         1 MK7      -0.128900
     10 C9           8.3800    15.4260    18.0880 c6         1 MK7       0.110700
     11 C11          7.3400    13.1360    18.4070 c          1 MK7       0.584100
     12 C12          3.7080    12.5620    19.8020 c6         1 MK7       0.131500
     13 N13          9.9870    17.6750    17.0660 n7         1 MK7      -0.852400
     14 N14          7.3320    14.4190    17.8940 ns         1 MK7      -0.505900
     15 N15          2.6410    11.6460    19.3180 n7         1 MK7      -0.540900
     16 N16          5.7920    11.2270    19.1350 n          1 MK7      -0.381800
     17 O17          0.2340    10.6280    17.7480 o          1 MK7      -0.715200
     18 O18          7.3220     9.6180    18.4710 o          1 MK7      -0.630100
     19 O19          8.2800    12.7410    19.0850 o          1 MK7      -0.620100
     20 O20         -0.7980    12.8640    17.9630 o          1 MK7      -0.715200
     21 O21          1.2750    12.5810    16.6480 o          1 MK7      -0.715200
     22 O22          1.3390    12.3820    19.1390 os         1 MK7      -0.432000
     23 S23          0.4360    12.0880    17.7540 s6         1 MK7       1.529300
     24 H1           4.7320    14.3880    19.1980 hc         1 MK7       0.054200
     25 H2           3.2060    14.1450    18.3680 hc         1 MK7       0.054200
     26 H3           8.4640    18.9180    17.8700 h1         1 MK7       0.051950
     27 H4           9.3060    17.9080    19.0630 h1         1 MK7       0.051950
     28 H5          11.3810    16.1940    16.4560 h1         1 MK7       0.051950
     29 H6          11.0780    16.2540    18.2040 h1         1 MK7       0.051950
     30 H7           4.6560    10.9390    20.9150 h1         1 MK7       0.048200
     31 H8           5.6030    12.4260    20.8570 h1         1 MK7       0.048200
     32 H9           6.3090     9.5280    20.2620 h5         1 MK7       0.007200
     33 H10          6.4920    11.6470    17.1830 h1         1 MK7       0.093700
     34 H11          5.0800    13.6910    16.7730 hc         1 MK7       0.073200
     35 H12          4.1830    12.2280    17.0730 hc         1 MK7       0.073200
     36 H13          7.0160    17.0260    18.6680 hc         1 MK7       0.051450
     37 H14          7.3040    16.9360    16.9320 hc         1 MK7       0.051450
     38 H15         10.0000    14.2430    17.2260 hc         1 MK7       0.051450
     39 H16          9.1340    15.2230    16.0470 hc         1 MK7       0.051450
     40 H17          8.7790    15.3300    19.1100 h1         1 MK7       0.079700
     41 H18          3.3150    13.0890    20.6840 h1         1 MK7       0.046700
     42 H19          9.5910    17.7430    16.1200 hn         1 MK7       0.399000
     43 H21          6.5310    14.6770    17.3320 hn         1 MK7       0.314500
     44 H22          2.4470    10.9140    20.0140 hn         1 MK7       0.394000
@<TRIPOS>BOND
     1     1     7 1   
     2     1    12 1   
     3     1    24 1   
     4     1    25 1   
     5     2     8 1   
     6     2    13 1   
     7     2    26 1   
     8     2    27 1   
     9     3     9 1   
    10     3    13 1   
    11     3    28 1   
    12     3    29 1   
    13     4    12 1   
    14     4    16 1   
    15     4    30 1   
    16     4    31 1   
    17     5    16 1   
    18     5    18 2   
    19     5    32 1   
    20     6     7 1   
    21     6    11 1   
    22     6    16 1   
    23     6    33 1   
    24     7    34 1   
    25     7    35 1   
    26     8    10 1   
    27     8    36 1   
    28     8    37 1   
    29     9    10 1   
    30     9    38 1   
    31     9    39 1   
    32    10    14 1   
    33    10    40 1   
    34    11    14 1   
    35    11    19 2   
    36    12    15 1   
    37    12    41 1   
    38    13    42 1   
    39    14    43 1   
    40    15    22 1   
    41    15    44 1   
    42    17    23 1   
    43    20    23 1   
    44    21    23 1   
    45    22    23 1   
@<TRIPOS>SUBSTRUCTURE
     1 MK7         1 TEMP              0 ****  ****    0 ROOT
