@<TRIPOS>MOLECULE
MK7
   44    45     1     0     0
SMALL
abcg2


@<TRIPOS>ATOM
      1 C4           3.8590    13.6380    18.9450 c6         1 MK7      -0.055400
      2 C5           9.0740    17.9060    17.8080 c6         1 MK7       0.150300
      3 C6          10.7220    16.1730    17.3980 c6         1 MK7       0.150300
      4 C7           4.9690    11.8020    20.2320 c6         1 MK7       0.099000
      5 C8           6.2730    10.2480    18.8710 c          1 MK7       0.615900
      6 C10          5.9650    12.5220    18.0630 c6         1 MK7       0.025700
      7 C1           4.6360    13.2040    17.7060 c6         1 MK7      -0.076400
      8 C2           7.9200    16.9100    17.6510 c6         1 MK7      -0.128900
      9 C3           9.6270    15.1160    17.2220 c6         1 MK7      -0.128900
     10 C9           8.3750    15.4990    18.0150 c6         1 MK7       0.110700
     11 C11          7.0730    13.4690    18.5710 c          1 MK7       0.584100
     12 C12          3.6350    12.4690    19.9030 c6         1 MK7       0.131500
     13 N13         10.2840    17.5340    17.0710 n7         1 MK7      -0.852400
     14 N14          7.2920    14.5460    17.7990 ns         1 MK7      -0.505900
     15 N15          2.7520    11.4560    19.3160 n7         1 MK7      -0.540900
     16 N16          5.7260    11.4630    19.0310 n          1 MK7      -0.381800
     17 O17          0.6360    10.2900    17.6850 o          1 MK7      -0.715200
     18 O18          6.9900     9.9020    17.9350 o          1 MK7      -0.630100
     19 O19          7.7200    13.2210    19.5870 o          1 MK7      -0.620100
     20 O20         -0.6740    12.2910    18.2240 o          1 MK7      -0.715200
     21 O21          1.3600    12.4740    16.8730 o          1 MK7      -0.715200
     22 O22          1.4100    11.9950    19.3220 os         1 MK7      -0.432000
     23 S23          0.6270    11.7330    17.8890 s6         1 MK7       1.529300
     24 H1           4.4060    14.4160    19.4850 hc         1 MK7       0.054200
     25 H2           2.8990    14.0610    18.6510 hc         1 MK7       0.054200
     26 H3           8.7590    18.8980    17.4830 h1         1 MK7       0.051950
     27 H4           9.3400    17.9820    18.8680 h1         1 MK7       0.051950
     28 H5          11.5870    15.9270    16.7790 h1         1 MK7       0.051950
     29 H6          11.0600    16.1730    18.4400 h1         1 MK7       0.051950
     30 H7           4.8210    10.8890    20.8110 h1         1 MK7       0.048200
     31 H8           5.5530    12.4940    20.8410 h1         1 MK7       0.048200
     32 H9           6.0030     9.5530    19.6800 h5         1 MK7       0.007200
     33 H10          6.3710    12.0430    17.1710 h1         1 MK7       0.093700
     34 H11          4.8130    14.0600    17.0550 hc         1 MK7       0.073200
     35 H12          4.0360    12.4950    17.1370 hc         1 MK7       0.073200
     36 H13          7.0770    17.2050    18.2810 hc         1 MK7       0.051450
     37 H14          7.5730    16.9190    16.6110 hc         1 MK7       0.051450
     38 H15          9.9880    14.1370    17.5460 hc         1 MK7       0.051450
     39 H16          9.3640    15.0380    16.1620 hc         1 MK7       0.051450
     40 H17          8.6100    15.4640    19.0810 h1         1 MK7       0.079700
     41 H18          3.2150    12.8420    20.8440 h1         1 MK7       0.046700
     42 H19         10.0880    17.5830    16.0750 hn         1 MK7       0.399000
     43 H21          6.7680    14.6390    16.9420 hn         1 MK7       0.314500
     44 H22          2.6830    10.6720    19.9610 hn         1 MK7       0.394000
@<TRIPOS>BOND
     1     1     7 1   
     2     1    12 1   
     3     1    24 1   
     4     1    25 1   
     5     2     8 1   
     6     2    13 1   
     7     2    26 1   
     8     2    27 1   
     9     3     9 1   
    10     3    13 1   
    11     3    28 1   
    12     3    29 1   
    13     4    12 1   
    14     4    16 1   
    15     4    30 1   
    16     4    31 1   
    17     5    16 1   
    18     5    18 2   
    19     5    32 1   
    20     6     7 1   
    21     6    11 1   
    22     6    16 1   
    23     6    33 1   
    24     7    34 1   
    25     7    35 1   
    26     8    10 1   
    27     8    36 1   
    28     8    37 1   
    29     9    10 1   
    30     9    38 1   
    31     9    39 1   
    32    10    14 1   
    33    10    40 1   
    34    11    14 1   
    35    11    19 2   
    36    12    15 1   
    37    12    41 1   
    38    13    42 1   
    39    14    43 1   
    40    15    22 1   
    41    15    44 1   
    42    17    23 1   
    43    20    23 1   
    44    21    23 1   
    45    22    23 1   
@<TRIPOS>SUBSTRUCTURE
     1 MK7         1 TEMP              0 ****  ****    0 ROOT
