@<TRIPOS>MOLECULE
MK8
   24    23     1     0     0
SMALL
No Charge or Current Charge


@<TRIPOS>ATOM
      1 C            8.7380    -1.3750    -8.1450 c          1 MK8       0.728000
      2 N            8.3540    -1.7140    -5.6010 n8         1 MK8      -0.967200
      3 O            8.1080    -1.9900    -8.9990 o          1 MK8      -0.725000
      4 CA           7.9850    -0.8900    -6.8080 c3         1 MK8       0.031200
      5 CB           8.3560     0.5980    -6.4650 c3         1 MK8      -0.044400
      6 CD           8.2720     1.7170    -8.8510 c3         1 MK8      -0.085400
      7 CE           7.8200     2.9630    -9.6380 c3         1 MK8      -0.084100
      8 CG           7.8010     1.7310    -7.3790 c3         1 MK8      -0.053400
      9 CB1          6.4410    -1.0390    -6.9490 c3         1 MK8      -0.087100
     10 OXT          9.9420    -1.1670    -8.2540 o          1 MK8      -0.725000
     11 HN           7.7230    -1.4750    -4.8290 hn         1 MK8       0.359500
     12 HNA          8.1450    -2.7000    -5.7950 hn         1 MK8       0.359500
     13 HB           8.0010     0.8180    -5.4500 hc         1 MK8       0.031200
     14 HBA          9.4470     0.6980    -6.4170 hc         1 MK8       0.031200
     15 HD           9.3660     1.6500    -8.8860 hc         1 MK8       0.067700
     16 HDA          7.8730     0.8310    -9.3590 hc         1 MK8       0.067700
     17 HE           8.1680     2.9060   -10.6760 hc         1 MK8       0.013367
     18 HEA          6.7260     3.0410    -9.6460 hc         1 MK8       0.013367
     19 HEB          8.2300     3.8750    -9.1880 hc         1 MK8       0.013367
     20 HG           8.1040     2.6870    -6.9350 hc         1 MK8       0.007200
     21 HGA          6.7050     1.7250    -7.3500 hc         1 MK8       0.007200
     22 HB1          5.9220    -0.6290    -6.0730 hc         1 MK8       0.013700
     23 HB1A         6.0710    -0.5110    -7.8360 hc         1 MK8       0.013700
     24 HB1B         6.1520    -2.0930    -7.0480 hc         1 MK8       0.013700
@<TRIPOS>BOND
     1     1     3 1   
     2     1     4 1   
     3     1    10 1   
     4     2     4 1   
     5     2    11 1   
     6     2    12 1   
     7     4     5 1   
     8     4     9 1   
     9     5     8 1   
    10     5    13 1   
    11     5    14 1   
    12     6     7 1   
    13     6     8 1   
    14     6    15 1   
    15     6    16 1   
    16     7    17 1   
    17     7    18 1   
    18     7    19 1   
    19     8    20 1   
    20     8    21 1   
    21     9    22 1   
    22     9    23 1   
    23     9    24 1   
@<TRIPOS>SUBSTRUCTURE
     1 MK8         1 TEMP              0 ****  ****    0 ROOT
