@<TRIPOS>MOLECULE
MK8
   24    23     1     0     0
SMALL
abcg2


@<TRIPOS>ATOM
      1 C            8.7720    -1.3970    -8.0560 c          1 MK8       0.728000
      2 N            8.3670    -1.6860    -5.6870 n8         1 MK8      -0.967200
      3 O            8.1330    -1.9920    -8.9490 o          1 MK8      -0.725000
      4 CA           7.9630    -0.8520    -6.8330 c3         1 MK8       0.031200
      5 CB           8.3720     0.5850    -6.4720 c3         1 MK8      -0.044400
      6 CD           8.2500     1.6740    -8.8210 c3         1 MK8      -0.085400
      7 CE           7.7450     2.8870    -9.5910 c3         1 MK8      -0.084100
      8 CG           7.8410     1.7130    -7.3540 c3         1 MK8      -0.053400
      9 CB1          6.4540    -0.9330    -7.0610 c3         1 MK8      -0.087100
     10 OXT         10.0070    -1.2250    -8.0270 o          1 MK8      -0.725000
     11 HN           7.8170    -1.4100    -4.8790 hn         1 MK8       0.359500
     12 HNA          8.1040    -2.6500    -5.8650 hn         1 MK8       0.359500
     13 HB           8.0190     0.7800    -5.4520 hc         1 MK8       0.031200
     14 HBA          9.4630     0.6320    -6.4290 hc         1 MK8       0.031200
     15 HD           9.3400     1.6170    -8.8960 hc         1 MK8       0.067700
     16 HDA          7.8660     0.7660    -9.2910 hc         1 MK8       0.067700
     17 HE           8.0310     2.8450   -10.6430 hc         1 MK8       0.013367
     18 HEA          6.6550     2.9530    -9.5500 hc         1 MK8       0.013367
     19 HEB          8.1440     3.8150    -9.1770 hc         1 MK8       0.013367
     20 HG           8.1840     2.6600    -6.9230 hc         1 MK8       0.007200
     21 HGA          6.7480     1.7490    -7.2930 hc         1 MK8       0.007200
     22 HB1          5.9200    -0.5250    -6.1980 hc         1 MK8       0.013700
     23 HB1A         6.1230    -0.3820    -7.9420 hc         1 MK8       0.013700
     24 HB1B         6.1320    -1.9680    -7.1860 hc         1 MK8       0.013700
@<TRIPOS>BOND
     1     1     3 1   
     2     1     4 1   
     3     1    10 1   
     4     2     4 1   
     5     2    11 1   
     6     2    12 1   
     7     4     5 1   
     8     4     9 1   
     9     5     8 1   
    10     5    13 1   
    11     5    14 1   
    12     6     7 1   
    13     6     8 1   
    14     6    15 1   
    15     6    16 1   
    16     7    17 1   
    17     7    18 1   
    18     7    19 1   
    19     8    20 1   
    20     8    21 1   
    21     9    22 1   
    22     9    23 1   
    23     9    24 1   
@<TRIPOS>SUBSTRUCTURE
     1 MK8         1 TEMP              0 ****  ****    0 ROOT
