@<TRIPOS>MOLECULE
MK9
   84    87     1     0     0
SMALL
bcc


@<TRIPOS>ATOM
      1 CLR         -4.1420    -3.4310    -1.4100 cl         1 MK9      -0.068400
      2 CAQ         -5.0740    -2.3240    -0.4790 ca         1 MK9      -0.044600
      3 CAO         -7.1820    -1.6570     0.4660 ca         1 MK9      -0.299000
      4 CAN         -6.5860    -0.5270     1.0200 ca         1 MK9       0.196100
      5 OAT         -7.2370     0.3820     1.7490 os         1 MK9      -0.295900
      6 CBS         -8.6190     0.1970     2.0010 c3         1 MK9       0.124700
      7 CAM         -5.2230    -0.3090     0.8180 ca         1 MK9      -0.044600
      8 CLU         -4.4760     1.0850     1.4990 cl         1 MK9      -0.068400
      9 CAP         -6.4360    -2.5610    -0.2840 ca         1 MK9       0.196100
     10 OAS         -6.9390    -3.6610    -0.8460 os         1 MK9      -0.295900
     11 CBR         -8.3200    -3.9420    -0.6860 c3         1 MK9       0.124700
     12 CAL         -4.4700    -1.2030     0.0700 ca         1 MK9       0.133600
     13 NAI         -3.0830    -1.0100    -0.0870 n          1 MK9      -0.404000
     14 CAJ         -2.2400    -1.5790     0.9550 c6         1 MK9       0.199300
     15 C5          -0.8070    -1.4740     0.5660 ca         1 MK9      -0.448900
     16 C6           0.2090    -2.1740     1.1780 ca         1 MK9       0.512200
     17 N1           1.4940    -2.0270     0.8820 nb         1 MK9      -0.789000
     18 C2           1.7720    -1.1370    -0.0740 ca         1 MK9       0.946900
     19 NAV          3.0580    -0.9310    -0.3910 nu         1 MK9      -0.868900
     20 CAX          4.1660    -1.6140     0.2360 c3         1 MK9       0.241800
     21 N3           0.8670    -0.4220    -0.7550 nb         1 MK9      -0.833000
     22 C4          -0.3970    -0.5920    -0.4360 ca         1 MK9       0.650200
     23 CAH         -2.6930    -0.1050    -1.0270 c          1 MK9       0.850500
     24 OAK         -3.5040     0.4510    -1.7420 o          1 MK9      -0.630500
     25 NAG         -1.3350     0.1340    -1.1450 n          1 MK9      -0.459300
     26 CAW         -0.8770     1.1780    -2.0570 c3         1 MK9       0.159300
     27 CBG         -0.4600     2.4170    -1.3070 ca         1 MK9      -0.078300
     28 CBL          0.8520     2.8550    -1.3650 ca         1 MK9      -0.159000
     29 CBH         -1.3800     3.1220    -0.5330 ca         1 MK9      -0.134000
     30 CBI         -0.9690     4.2470     0.1600 ca         1 MK9      -0.110000
     31 CBJ          0.3460     4.6940     0.1040 ca         1 MK9      -0.140000
     32 CBK          1.2710     3.9910    -0.6670 ca         1 MK9       0.062600
     33 NBM          2.6150     4.3490    -0.8040 ns         1 MK9      -0.469100
     34 CBN          3.3560     5.2030    -0.0510 c          1 MK9       0.674300
     35 OBQ          2.9150     5.8490     0.8840 o          1 MK9      -0.583100
     36 CBO          4.7770     5.2710    -0.4800 ce         1 MK9      -0.256200
     37 CBP          5.6650     6.0050     0.1810 c2         1 MK9      -0.126000
     38 H1          -8.2360    -1.8360     0.6230 ha         1 MK9       0.145000
     39 H2          -8.9310     1.0380     2.6140 h1         1 MK9       0.045700
     40 H3          -9.2030     0.1940     1.0780 h1         1 MK9       0.045700
     41 H4          -8.8080    -0.7290     2.5490 h1         1 MK9       0.045700
     42 H5          -8.5840    -4.0820     0.3650 h1         1 MK9       0.045700
     43 H6          -8.9440    -3.1520    -1.1110 h1         1 MK9       0.045700
     44 H7          -8.5070    -4.8670    -1.2240 h1         1 MK9       0.045700
     45 H8          -2.4310    -1.0650     1.9040 h1         1 MK9       0.054200
     46 H9          -2.5230    -2.6240     1.0970 h1         1 MK9       0.054200
     47 H10         -0.0250    -2.8910     1.9600 h4         1 MK9       0.021100
     48 H11          3.2420    -0.2830    -1.1390 hn         1 MK9       0.446800
     49 H12          4.1230    -1.4740     1.3200 h1         1 MK9       0.055200
     50 H13          4.0990    -2.6930     0.0600 h1         1 MK9       0.055200
     51 H15         -0.0500     0.7920    -2.6480 h1         1 MK9       0.079200
     52 H16         -1.6920     1.3990    -2.7400 h1         1 MK9       0.079200
     53 H17          1.5690     2.2940    -1.9540 ha         1 MK9       0.128000
     54 H18         -2.4130     2.7990    -0.4750 ha         1 MK9       0.146000
     55 H19         -1.6810     4.7990     0.7590 ha         1 MK9       0.133000
     56 H20          0.6310     5.5780     0.6500 ha         1 MK9       0.162000
     57 H21          3.1140     3.8450    -1.5210 hn         1 MK9       0.313500
     58 H22          5.0790     4.7000    -1.3510 ha         1 MK9       0.125000
     59 H24          6.6990     6.0460    -0.1340 ha         1 MK9       0.127500
     60 H25          5.3940     6.5810     1.0550 ha         1 MK9       0.127500
     61 CAY          5.4890    -1.0890    -0.2940 c3         1 MK9      -0.098400
     62 CAZ          6.6740    -1.7740     0.3740 c3         1 MK9      -0.075400
     63 C7           8.0060    -1.2610    -0.1550 c3         1 MK9       0.173800
     64 N2           9.1480    -1.8540     0.5220 n3         1 MK9      -0.730600
     65 C9          10.3220    -1.9110    -0.3370 c3         1 MK9       0.171800
     66 C8           9.4240    -1.1860     1.7860 c3         1 MK9       0.171800
     67 C10         10.2140    -2.0470     2.7580 c3         1 MK9      -0.089100
     68 C11         10.2550    -3.0420    -1.3500 c3         1 MK9      -0.089100
     69 H14          5.5370    -1.2390    -1.3770 hc         1 MK9       0.041700
     70 H23          5.5470    -0.0090    -0.1240 hc         1 MK9       0.041700
     71 H26          6.6090    -1.6200     1.4560 hc         1 MK9       0.051700
     72 H27          6.6220    -2.8540     0.2120 hc         1 MK9       0.051700
     73 H28          8.0620    -1.5000    -1.2200 h1         1 MK9       0.028200
     74 H29          8.0330    -0.1600    -0.0960 h1         1 MK9       0.028200
     75 H30         10.4890    -0.9500    -0.8530 h1         1 MK9       0.027950
     76 H31         11.2030    -2.0670     0.2880 h1         1 MK9       0.027950
     77 H32          9.9420    -0.2260     1.6270 h1         1 MK9       0.027950
     78 H33          8.4720    -0.9340     2.2560 h1         1 MK9       0.027950
     79 H34         10.3620    -1.5160     3.6980 hc         1 MK9       0.036700
     80 H35          9.6810    -2.9740     2.9730 hc         1 MK9       0.036700
     81 H36         11.2010    -2.3100     2.3760 hc         1 MK9       0.036700
     82 H37         10.1830    -4.0060    -0.8440 hc         1 MK9       0.036700
     83 H38          9.3990    -2.9510    -2.0180 hc         1 MK9       0.036700
     84 H39         11.1530    -3.0510    -1.9700 hc         1 MK9       0.036700
@<TRIPOS>BOND
     1     1     2 1   
     2     2     9 ar  
     3     2    12 ar  
     4     3     4 ar  
     5     3     9 ar  
     6     3    38 1   
     7     4     5 1   
     8     4     7 ar  
     9     5     6 1   
    10     6    39 1   
    11     6    40 1   
    12     6    41 1   
    13     7     8 1   
    14     7    12 ar  
    15     9    10 1   
    16    10    11 1   
    17    11    42 1   
    18    11    43 1   
    19    11    44 1   
    20    12    13 1   
    21    13    14 1   
    22    13    23 1   
    23    14    15 1   
    24    14    45 1   
    25    14    46 1   
    26    15    16 ar  
    27    15    22 ar  
    28    16    17 ar  
    29    16    47 1   
    30    17    18 ar  
    31    18    19 1   
    32    18    21 ar  
    33    19    20 1   
    34    19    48 1   
    35    20    49 1   
    36    20    50 1   
    37    20    61 1   
    38    21    22 ar  
    39    22    25 1   
    40    23    24 2   
    41    23    25 1   
    42    25    26 1   
    43    26    27 1   
    44    26    51 1   
    45    26    52 1   
    46    27    28 ar  
    47    27    29 ar  
    48    28    32 ar  
    49    28    53 1   
    50    29    30 ar  
    51    29    54 1   
    52    30    31 ar  
    53    30    55 1   
    54    31    32 ar  
    55    31    56 1   
    56    32    33 1   
    57    33    34 1   
    58    33    57 1   
    59    34    35 2   
    60    34    36 1   
    61    36    37 2   
    62    36    58 1   
    63    37    59 1   
    64    37    60 1   
    65    61    62 1   
    66    61    69 1   
    67    61    70 1   
    68    62    63 1   
    69    62    71 1   
    70    62    72 1   
    71    63    64 1   
    72    63    73 1   
    73    63    74 1   
    74    64    65 1   
    75    64    66 1   
    76    65    68 1   
    77    65    75 1   
    78    65    76 1   
    79    66    67 1   
    80    66    77 1   
    81    66    78 1   
    82    67    79 1   
    83    67    80 1   
    84    67    81 1   
    85    68    82 1   
    86    68    83 1   
    87    68    84 1   
@<TRIPOS>SUBSTRUCTURE
     1 MK9         1 TEMP              0 ****  ****    0 ROOT
