@<TRIPOS>MOLECULE
MK9
   84    87     1     0     0
SMALL
No Charge or Current Charge


@<TRIPOS>ATOM
      1 ClR         -4.6280    -3.4780    -1.5260 cl         1 MK9      -0.160000
      2 CAQ         -5.4140    -2.3240    -0.4350 ca         1 MK9       0.047000
      3 CAO         -7.4480    -1.4540     0.5990 ca         1 MK9      -0.281000
      4 CAN         -6.6970    -0.4280     1.2120 ca         1 MK9       0.196100
      5 OAT         -7.2890     0.5280     2.0180 os         1 MK9      -0.319100
      6 CBS         -8.7020     0.5490     2.2890 c3         1 MK9       0.147900
      7 CAM         -5.3030    -0.3600     1.0050 ca         1 MK9       0.047000
      8 ClU         -4.3640     0.9320     1.7730 cl         1 MK9      -0.160000
      9 CAP         -6.8080    -2.3970    -0.2330 ca         1 MK9       0.196100
     10 OAS         -7.5130    -3.4000    -0.8750 os         1 MK9      -0.319100
     11 CBR         -8.9370    -3.5580    -0.7400 c3         1 MK9       0.147900
     12 CAL         -4.6500    -1.3300     0.2150 ca         1 MK9       0.041000
     13 NAI         -3.2470    -1.1970    -0.0600 n          1 MK9      -0.244400
     14 CAJ         -2.3500    -2.0950     0.6890 c6         1 MK9       0.199300
     15 C5          -0.8770    -1.8270     0.4750 ca         1 MK9      -0.318300
     16 C6           0.0960    -2.5340     1.2000 ca         1 MK9       0.183900
     17 N1           1.4090    -2.3080     1.0160 nb         1 MK9      -0.263000
     18 C2           1.7260    -1.3750     0.1030 ca         1 MK9       0.420900
     19 NAV          3.0660    -1.1090    -0.1160 nu         1 MK9      -0.924100
     20 CAX          4.2210    -1.7160     0.5600 c3         1 MK9       0.241800
     21 N3           0.8780    -0.6520    -0.6380 nb         1 MK9      -0.307000
     22 C4          -0.4380    -0.8760    -0.4490 ca         1 MK9       0.321900
     23 CAH         -2.7760    -0.2690    -1.0130 c          1 MK9       0.641000
     24 OAK         -3.5750     0.3990    -1.6580 o          1 MK9      -0.555000
     25 NAG         -1.3870    -0.1220    -1.2050 n          1 MK9      -0.392300
     26 CAW         -0.9030     0.8970    -2.1800 c3         1 MK9       0.159300
     27 CBG         -0.4600     2.2000    -1.5190 ca         1 MK9      -0.078300
     28 CBL          0.8980     2.5770    -1.5240 ca         1 MK9      -0.141000
     29 CBH         -1.4020     3.0360    -0.8920 ca         1 MK9      -0.116000
     30 CBI         -0.9890     4.2270    -0.2760 ca         1 MK9      -0.092000
     31 CBJ          0.3670     4.5940    -0.2800 ca         1 MK9      -0.122000
     32 CBK          1.3260     3.7670    -0.9060 ca         1 MK9      -0.030000
     33 NBM          2.7160     4.0660    -0.9510 ns         1 MK9      -0.143000
     34 CBN          3.4710     5.0970    -0.4090 c          1 MK9       0.607300
     35 OBQ          3.0190     6.0060     0.2770 o          1 MK9      -0.583100
     36 CBO          4.9300     5.0010    -0.7270 ce         1 MK9      -0.306200
     37 CBP          5.8730     5.8680    -0.2780 c2         1 MK9      -0.226000
     38 H1          -8.5190    -1.5080     0.7560 ha         1 MK9       0.127000
     39 H2          -8.9490     1.3900     2.9480 h1         1 MK9       0.045700
     40 H3          -9.2760     0.6650     1.3610 h1         1 MK9       0.045700
     41 H4          -9.0170    -0.3770     2.7880 h1         1 MK9       0.045700
     42 H5          -9.2120    -3.7380     0.3070 h1         1 MK9       0.045700
     43 H6          -9.4640    -2.6640    -1.0960 h1         1 MK9       0.045700
     44 H7          -9.2810    -4.4140    -1.3340 h1         1 MK9       0.045700
     45 H8          -2.5760    -1.9980     1.7610 h1         1 MK9       0.054200
     46 H9          -2.5650    -3.1350     0.4060 h1         1 MK9       0.054200
     47 H10         -0.1750    -3.2900     1.9350 h4         1 MK9       0.021100
     48 H11          3.2520    -0.3930    -0.8180 hn         1 MK9       0.502000
     49 H12          4.1570    -1.5430     1.6440 h1         1 MK9       0.055200
     50 H13          4.2290    -2.8030     0.3920 h1         1 MK9       0.055200
     51 H15         -0.0690     0.4740    -2.7560 h1         1 MK9       0.079200
     52 H16         -1.6800     1.1250    -2.9210 h1         1 MK9       0.079200
     53 H17          1.6300     1.9330    -2.0080 ha         1 MK9       0.110000
     54 H18         -2.4550     2.7630    -0.8790 ha         1 MK9       0.128000
     55 H19         -1.7230     4.8690     0.2080 ha         1 MK9       0.115000
     56 H20          0.6490     5.5240     0.2040 ha         1 MK9       0.144000
     57 H21          3.2570     3.3960    -1.4820 hn         1 MK9       0.147000
     58 H22          5.2220     4.1620    -1.3590 ha         1 MK9       0.175000
     59 H24          6.9280     5.7530    -0.5350 ha         1 MK9       0.177500
     60 H25          5.6220     6.7180     0.3600 ha         1 MK9       0.177500
     61 CAY          5.5340    -1.1080     0.0270 c3         1 MK9      -0.098400
     62 CAZ          6.7900    -1.7020     0.7030 c3         1 MK9      -0.075400
     63 C7           8.1070    -1.0850     0.1700 c3         1 MK9       0.173800
     64 N2           9.3610    -1.7640     0.6120 n3         1 MK9      -0.730600
     65 C9          10.5690    -1.2570    -0.1050 c3         1 MK9       0.171800
     66 C8           9.5300    -1.7540     2.0950 c3         1 MK9       0.171800
     67 C10         10.6950    -2.6100     2.6360 c3         1 MK9      -0.089100
     68 C11         10.5530    -1.4370    -1.6380 c3         1 MK9      -0.089100
     69 H14          5.5950    -1.2770    -1.0560 hc         1 MK9       0.041700
     70 H23          5.5200    -0.0230     0.1870 hc         1 MK9       0.041700
     71 H26          6.7120    -1.5370     1.7840 hc         1 MK9       0.051700
     72 H27          6.8110    -2.7860     0.5380 hc         1 MK9       0.051700
     73 H28          8.0360    -1.1210    -0.9240 h1         1 MK9       0.028200
     74 H29          8.1370    -0.0240     0.4520 h1         1 MK9       0.028200
     75 H30         10.7220    -0.1930     0.1220 h1         1 MK9       0.027950
     76 H31         11.4610    -1.7890     0.2480 h1         1 MK9       0.027950
     77 H32          9.6570    -0.7230     2.4520 h1         1 MK9       0.027950
     78 H33          8.6250    -2.1470     2.5740 h1         1 MK9       0.027950
     79 H34         10.6290    -2.6830     3.7270 hc         1 MK9       0.036700
     80 H35         10.6530    -3.6250     2.2230 hc         1 MK9       0.036700
     81 H36         11.6670    -2.1670     2.3930 hc         1 MK9       0.036700
     82 H37         10.3060    -2.4710    -1.9050 hc         1 MK9       0.036700
     83 H38          9.8310    -0.7650    -2.1150 hc         1 MK9       0.036700
     84 H39         11.5410    -1.2050    -2.0510 hc         1 MK9       0.036700
@<TRIPOS>BOND
     1     1     2 1   
     2     2     9 ar  
     3     2    12 ar  
     4     3     4 ar  
     5     3     9 ar  
     6     3    38 1   
     7     4     5 1   
     8     4     7 ar  
     9     5     6 1   
    10     6    39 1   
    11     6    40 1   
    12     6    41 1   
    13     7     8 1   
    14     7    12 ar  
    15     9    10 1   
    16    10    11 1   
    17    11    42 1   
    18    11    43 1   
    19    11    44 1   
    20    12    13 1   
    21    13    14 1   
    22    13    23 1   
    23    14    15 1   
    24    14    45 1   
    25    14    46 1   
    26    15    16 ar  
    27    15    22 ar  
    28    16    17 ar  
    29    16    47 1   
    30    17    18 ar  
    31    18    19 1   
    32    18    21 ar  
    33    19    20 1   
    34    19    48 1   
    35    20    49 1   
    36    20    50 1   
    37    20    61 1   
    38    21    22 ar  
    39    22    25 1   
    40    23    24 2   
    41    23    25 1   
    42    25    26 1   
    43    26    27 1   
    44    26    51 1   
    45    26    52 1   
    46    27    28 ar  
    47    27    29 ar  
    48    28    32 ar  
    49    28    53 1   
    50    29    30 ar  
    51    29    54 1   
    52    30    31 ar  
    53    30    55 1   
    54    31    32 ar  
    55    31    56 1   
    56    32    33 1   
    57    33    34 1   
    58    33    57 1   
    59    34    35 2   
    60    34    36 1   
    61    36    37 2   
    62    36    58 1   
    63    37    59 1   
    64    37    60 1   
    65    61    62 1   
    66    61    69 1   
    67    61    70 1   
    68    62    63 1   
    69    62    71 1   
    70    62    72 1   
    71    63    64 1   
    72    63    73 1   
    73    63    74 1   
    74    64    65 1   
    75    64    66 1   
    76    65    68 1   
    77    65    75 1   
    78    65    76 1   
    79    66    67 1   
    80    66    77 1   
    81    66    78 1   
    82    67    79 1   
    83    67    80 1   
    84    67    81 1   
    85    68    82 1   
    86    68    83 1   
    87    68    84 1   
@<TRIPOS>SUBSTRUCTURE
     1 MK9         1 TEMP              0 ****  ****    0 ROOT
