@<TRIPOS>MOLECULE
MKA
   54    57     1     0     0
SMALL
No Charge or Current Charge


@<TRIPOS>ATOM
      1 C17         12.0490    19.7640     1.2900 ca         1 MKA      -0.112000
      2 C12         15.5970    22.8120     2.8380 c6         1 MKA      -0.090900
      3 C13         16.1240    21.3580     2.8970 c6         1 MKA       0.130700
      4 C3          18.6980    25.1720    -2.1130 c3         1 MKA      -0.097100
      5 C1          17.9450    24.2740     0.1800 c3         1 MKA       0.156800
      6 C2          18.1680    23.9540    -1.3270 c3         1 MKA       0.098700
      7 C11         16.6570    23.7590     2.2350 c6         1 MKA       0.183300
      8 N           16.9210    23.4380    -1.8980 ns         1 MKA      -0.473900
      9 CA          16.8170    22.6320    -3.0070 c          1 MKA       0.621700
     10 O           16.1910    19.7950     5.4680 o          1 MKA      -0.575000
     11 CB          15.4690    21.9760    -3.2280 ca         1 MKA      -0.165600
     12 CG1         14.4180    22.0810    -2.2800 ca         1 MKA      -0.048500
     13 CG2         15.2500    21.2170    -4.4010 ca         1 MKA      -0.048500
     14 CD1         13.1850    21.4460    -2.5100 ca         1 MKA      -0.160500
     15 C14         15.3040    19.6890     4.6380 c          1 MKA       0.590000
     16 C15         13.9730    19.9130     2.7420 ca         1 MKA       0.009600
     17 C16         13.2540    20.4120     1.6430 ca         1 MKA      -0.103000
     18 C18         11.5490    18.6880     2.0660 ca         1 MKA      -0.108000
     19 C19         13.4310    18.9130     3.5340 ca         1 MKA       0.001600
     20 C20         12.2350    18.2610     3.2230 ca         1 MKA      -0.113000
     21 C21         16.6680    20.9040     1.5210 c6         1 MKA      -0.090900
     22 C22         17.6900    21.9200     0.9710 c6         1 MKA       0.183300
     23 C7          14.0140    20.5860    -4.6260 ca         1 MKA      -0.160500
     24 C8          12.9860    20.7020    -3.6810 ca         1 MKA       0.183000
     25 F1          11.8000    20.0930    -3.8970 f          1 MKA      -0.179000
     26 N1          17.0910    23.2840     0.8950 n3         1 MKA      -0.764600
     27 N3          15.1160    20.4210     3.4520 n          1 MKA      -0.298000
     28 N4          14.2700    18.8000     4.6440 ns         1 MKA      -0.504600
     29 O1          17.7690    22.4400    -3.7530 o          1 MKA      -0.604100
     30 H1          11.4880    20.1060     0.4230 ha         1 MKA       0.116000
     31 H2          15.3280    23.1530     3.8460 hc         1 MKA       0.060700
     32 H3          14.6830    22.8690     2.2350 hc         1 MKA       0.060700
     33 H4          16.9830    21.3650     3.5850 h1         1 MKA       0.081700
     34 H6          18.9020    24.9060    -3.1560 hc         1 MKA       0.044033
     35 H7          17.9680    25.9900    -2.1030 hc         1 MKA       0.044033
     36 H8          18.9210    24.3700     0.6750 h1         1 MKA       0.035700
     37 H9          17.4600    25.2590     0.2370 h1         1 MKA       0.035700
     38 H10         18.9200    23.1570    -1.3900 h1         1 MKA       0.087700
     39 H11         17.5190    23.8240     2.9150 h1         1 MKA       0.036200
     40 H12         16.2240    24.7670     2.1620 h1         1 MKA       0.036200
     41 H13         16.1070    23.4910    -1.3010 hn         1 MKA       0.298500
     42 H14         14.5410    22.6420    -1.3550 ha         1 MKA       0.129500
     43 H15         16.0390    21.1150    -5.1440 ha         1 MKA       0.129500
     44 H16         12.3840    21.5290    -1.7810 ha         1 MKA       0.136500
     45 H17         13.6090    21.2600     1.0650 ha         1 MKA       0.131000
     46 H18         10.6130    18.2090     1.7860 ha         1 MKA       0.116000
     47 H19         11.8370    17.4730     3.8580 ha         1 MKA       0.120000
     48 H20         15.8560    20.7960     0.7930 hc         1 MKA       0.060700
     49 H21         17.1410    19.9170     1.6120 hc         1 MKA       0.060700
     50 H22         18.0130    21.5750    -0.0210 h1         1 MKA       0.036200
     51 H23         18.5810    21.9300     1.6170 h1         1 MKA       0.036200
     52 H24         13.8530    20.0060    -5.5300 ha         1 MKA       0.136500
     53 H26         14.1410    18.1280     5.3940 hn         1 MKA       0.468000
     54 H5          19.6310    25.5380    -1.6690 hc         1 MKA       0.044033
@<TRIPOS>BOND
     1     1    17 ar  
     2     1    18 ar  
     3     1    30 1   
     4     2     3 1   
     5     2     7 1   
     6     2    31 1   
     7     2    32 1   
     8     3    21 1   
     9     3    27 1   
    10     3    33 1   
    11     4     6 1   
    12     4    34 1   
    13     4    35 1   
    14     4    54 1   
    15     5     6 1   
    16     5    26 1   
    17     5    36 1   
    18     5    37 1   
    19     6     8 1   
    20     6    38 1   
    21     7    26 1   
    22     7    39 1   
    23     7    40 1   
    24     8     9 1   
    25     8    41 1   
    26     9    11 1   
    27     9    29 2   
    28    10    15 2   
    29    11    12 ar  
    30    11    13 ar  
    31    12    14 ar  
    32    12    42 1   
    33    13    23 ar  
    34    13    43 1   
    35    14    24 ar  
    36    14    44 1   
    37    15    27 1   
    38    15    28 1   
    39    16    17 ar  
    40    16    19 ar  
    41    16    27 1   
    42    17    45 1   
    43    18    20 ar  
    44    18    46 1   
    45    19    20 ar  
    46    19    28 1   
    47    20    47 1   
    48    21    22 1   
    49    21    48 1   
    50    21    49 1   
    51    22    26 1   
    52    22    50 1   
    53    22    51 1   
    54    23    24 ar  
    55    23    52 1   
    56    24    25 1   
    57    28    53 1   
@<TRIPOS>SUBSTRUCTURE
     1 MKA         1 TEMP              0 ****  ****    0 ROOT
