@<TRIPOS>MOLECULE
MKA
   54    57     1     0     0
SMALL
abcg2


@<TRIPOS>ATOM
      1 C17         12.8960    18.9750     0.3300 ca         1 MKA      -0.112000
      2 C12         15.3630    22.6630     2.1700 c6         1 MKA      -0.090900
      3 C13         16.0990    21.3950     2.6040 c6         1 MKA       0.130700
      4 C3          18.9480    25.0060    -2.2160 c3         1 MKA      -0.097100
      5 C1          17.9930    24.2430    -0.0030 c3         1 MKA       0.156800
      6 C2          18.2610    23.8690    -1.4730 c3         1 MKA       0.098700
      7 C11         16.3570    23.7370     1.7430 c6         1 MKA       0.183300
      8 N           16.9960    23.5150    -2.1070 ns         1 MKA      -0.473900
      9 CA          16.5350    22.2430    -2.1240 c          1 MKA       0.621700
     10 O           15.7890    20.1690     5.2300 o          1 MKA      -0.575000
     11 CB          15.0520    22.0720    -2.2340 ca         1 MKA      -0.165600
     12 CG1         14.1610    22.9430    -1.6050 ca         1 MKA      -0.048500
     13 CG2         14.5550    20.9540    -2.9070 ca         1 MKA      -0.048500
     14 CD1         12.7920    22.7090    -1.6470 ca         1 MKA      -0.160500
     15 C14         15.1090    19.8260     4.2670 c          1 MKA       0.590000
     16 C15         14.2380    19.6800     2.1690 ca         1 MKA       0.009600
     17 C16         13.9040    19.8030     0.8270 ca         1 MKA      -0.103000
     18 C18         12.2400    18.0530     1.1460 ca         1 MKA      -0.108000
     19 C19         13.5730    18.7460     2.9860 ca         1 MKA       0.001600
     20 C20         12.5730    17.9250     2.4950 ca         1 MKA      -0.113000
     21 C21         17.1090    20.9390     1.5510 c6         1 MKA      -0.090900
     22 C22         18.0170    22.0960     1.1510 c6         1 MKA       0.183300
     23 C7          13.1900    20.7160    -2.9750 ca         1 MKA      -0.160500
     24 C8          12.3380    21.6000    -2.3360 ca         1 MKA       0.183000
     25 F1          11.0050    21.3590    -2.3750 f          1 MKA      -0.179000
     26 N1          17.2250    23.2290     0.6920 n3         1 MKA      -0.764600
     27 N3          15.1740    20.3290     2.9760 n          1 MKA      -0.298000
     28 N4          14.1260    18.8610     4.2500 ns         1 MKA      -0.504600
     29 O1          17.2760    21.2580    -2.0720 o          1 MKA      -0.604100
     30 H1          12.6220    19.0550    -0.7130 ha         1 MKA       0.116000
     31 H2          14.7470    23.0270     2.9950 hc         1 MKA       0.060700
     32 H3          14.7010    22.4440     1.3310 hc         1 MKA       0.060700
     33 H4          16.6450    21.6170     3.5230 h1         1 MKA       0.081700
     34 H6          19.1760    24.7140    -3.2420 hc         1 MKA       0.044033
     35 H7          18.3080    25.8920    -2.2430 hc         1 MKA       0.044033
     36 H8          18.9560    24.4560     0.4890 h1         1 MKA       0.035700
     37 H9          17.4170    25.1720     0.0060 h1         1 MKA       0.035700
     38 H10         18.8840    22.9770    -1.5170 h1         1 MKA       0.087700
     39 H11         16.9380    24.0740     2.6220 h1         1 MKA       0.036200
     40 H12         15.8170    24.6040     1.3590 h1         1 MKA       0.036200
     41 H13         16.3080    24.2520    -2.1440 hn         1 MKA       0.298500
     42 H14         14.5270    23.7900    -1.0410 ha         1 MKA       0.129500
     43 H15         15.2460    20.2680    -3.3760 ha         1 MKA       0.129500
     44 H16         12.0920    23.3620    -1.1450 ha         1 MKA       0.136500
     45 H17         14.3990    20.5080     0.1780 ha         1 MKA       0.131000
     46 H18         11.4630    17.4270     0.7290 ha         1 MKA       0.116000
     47 H19         12.0720    17.2130     3.1370 ha         1 MKA       0.120000
     48 H20         16.5940    20.5790     0.6600 hc         1 MKA       0.060700
     49 H21         17.7050    20.1150     1.9490 hc         1 MKA       0.060700
     50 H22         18.6750    21.7750     0.3440 h1         1 MKA       0.036200
     51 H23         18.6570    22.3850     2.0040 h1         1 MKA       0.036200
     52 H24         12.7900    19.8580    -3.4980 ha         1 MKA       0.136500
     53 H26         13.8700    18.3280     5.0650 hn         1 MKA       0.468000
     54 H5          19.8800    25.2750    -1.7170 hc         1 MKA       0.044033
@<TRIPOS>BOND
     1     1    17 ar  
     2     1    18 ar  
     3     1    30 1   
     4     2     3 1   
     5     2     7 1   
     6     2    31 1   
     7     2    32 1   
     8     3    21 1   
     9     3    27 1   
    10     3    33 1   
    11     4     6 1   
    12     4    34 1   
    13     4    35 1   
    14     4    54 1   
    15     5     6 1   
    16     5    26 1   
    17     5    36 1   
    18     5    37 1   
    19     6     8 1   
    20     6    38 1   
    21     7    26 1   
    22     7    39 1   
    23     7    40 1   
    24     8     9 1   
    25     8    41 1   
    26     9    11 1   
    27     9    29 2   
    28    10    15 2   
    29    11    12 ar  
    30    11    13 ar  
    31    12    14 ar  
    32    12    42 1   
    33    13    23 ar  
    34    13    43 1   
    35    14    24 ar  
    36    14    44 1   
    37    15    27 1   
    38    15    28 1   
    39    16    17 ar  
    40    16    19 ar  
    41    16    27 1   
    42    17    45 1   
    43    18    20 ar  
    44    18    46 1   
    45    19    20 ar  
    46    19    28 1   
    47    20    47 1   
    48    21    22 1   
    49    21    48 1   
    50    21    49 1   
    51    22    26 1   
    52    22    50 1   
    53    22    51 1   
    54    23    24 ar  
    55    23    52 1   
    56    24    25 1   
    57    28    53 1   
@<TRIPOS>SUBSTRUCTURE
     1 MKA         1 TEMP              0 ****  ****    0 ROOT
