@<TRIPOS>MOLECULE
MKB
   48    52     1     0     0
SMALL
No Charge or Current Charge


@<TRIPOS>ATOM
      1 C02         -1.5600    15.2380   -15.8070 c          1 MKB       0.621700
      2 C04         -2.9210    15.7060   -17.8860 c6         1 MKB       0.096500
      3 C05         -4.0840    14.7180   -18.1560 c6         1 MKB       0.158800
      4 C07         -5.0620    15.2540   -15.9800 c6         1 MKB       0.158800
      5 C08         -3.8950    16.2330   -15.6780 c6         1 MKB       0.096500
      6 C12         -6.3070    12.5690   -17.2730 ca         1 MKB      -0.318500
      7 C13         -5.6510    11.6550   -18.1490 ca         1 MKB      -0.003000
      8 C14         -5.3160    10.3530   -17.7110 ca         1 MKB      -0.130000
      9 C15         -5.6610    10.0180   -16.4020 ca         1 MKB       0.046600
     10 C17         -6.0010     8.9790   -14.3780 c          1 MKB       0.687100
     11 C20         -6.2990    10.8880   -15.5540 ca         1 MKB       0.026100
     12 C21         -6.6470    12.1830   -15.9490 ca         1 MKB       0.017000
     13 C22         -1.1570    15.6750   -14.4170 ca         1 MKB      -0.183600
     14 C23         -0.4930    14.7530   -13.5600 ca         1 MKB      -0.052000
     15 C24         -0.0820    15.1300   -12.2620 ca         1 MKB      -0.134000
     16 C25         -0.3340    16.4430   -11.8520 ca         1 MKB      -0.032200
     17 C27         -0.4510    18.4100   -10.6740 cc         1 MKB      -0.159100
     18 C28         -1.0150    18.5690   -11.9320 cd         1 MKB      -0.233200
     19 C29         -0.9480    17.3390   -12.6770 ca         1 MKB      -0.111800
     20 C30         -1.3710    17.0060   -13.9690 ca         1 MKB      -0.025000
     21 N03         -2.6550    15.8760   -16.4300 n          1 MKB      -0.409800
     22 N06         -5.3250    15.1260   -17.4410 n3         1 MKB      -0.704500
     23 N16         -5.4990     8.8670   -15.6470 ns         1 MKB      -0.520600
     24 N26         -0.0290    17.0610   -10.6490 na         1 MKB      -0.222700
     25 O01         -0.8940    14.4060   -16.4120 o          1 MKB      -0.589100
     26 O10         -6.7990    14.2370   -19.3110 o          1 MKB      -0.529000
     27 O11         -7.8090    14.7720   -17.0320 o          1 MKB      -0.529000
     28 O18         -6.0060     8.1410   -13.4930 o          1 MKB      -0.489000
     29 O19         -6.5030    10.2670   -14.3430 os         1 MKB      -0.282200
     30 S09         -6.7180    14.2250   -17.8460 sy         1 MKB       1.152600
     31 H1          -2.0180    15.3630   -18.4110 h1         1 MKB       0.071200
     32 H2          -3.1830    16.6850   -18.3120 h1         1 MKB       0.071200
     33 H3          -4.2520    14.6790   -19.2420 h1         1 MKB       0.063700
     34 H4          -3.7670    13.7130   -17.8410 h1         1 MKB       0.063700
     35 H5          -5.9550    15.6190   -15.4520 h1         1 MKB       0.063700
     36 H6          -4.8110    14.2740   -15.5480 h1         1 MKB       0.063700
     37 H7          -3.7200    16.2240   -14.5940 h1         1 MKB       0.071200
     38 H8          -4.1990    17.2520   -15.9540 h1         1 MKB       0.071200
     39 H9          -5.3980    11.9510   -19.1660 ha         1 MKB       0.141000
     40 H10         -4.8140     9.6450   -18.3660 ha         1 MKB       0.135000
     41 H11         -7.1540    12.8550   -15.2590 ha         1 MKB       0.162000
     42 H12         -0.3040    13.7350   -13.8980 ha         1 MKB       0.124000
     43 H13          0.4170    14.4220   -11.6050 ha         1 MKB       0.119000
     44 H14         -0.3200    19.1010    -9.8440 h4         1 MKB       0.215000
     45 H15         -1.4480    19.4980   -12.2980 ha         1 MKB       0.209000
     46 H16         -1.8310    17.7590   -14.6060 ha         1 MKB       0.123000
     47 H17         -5.0580     8.0150   -15.9790 hn         1 MKB       0.481000
     48 H18          0.4320    16.6050    -9.8670 hn         1 MKB       0.352000
@<TRIPOS>BOND
     1     1    13 1   
     2     1    21 1   
     3     1    25 2   
     4     2     3 1   
     5     2    21 1   
     6     2    31 1   
     7     2    32 1   
     8     3    22 1   
     9     3    33 1   
    10     3    34 1   
    11     4     5 1   
    12     4    22 1   
    13     4    35 1   
    14     4    36 1   
    15     5    21 1   
    16     5    37 1   
    17     5    38 1   
    18     6     7 ar  
    19     6    12 ar  
    20     6    30 1   
    21     7     8 ar  
    22     7    39 1   
    23     8     9 ar  
    24     8    40 1   
    25     9    11 ar  
    26     9    23 1   
    27    10    23 1   
    28    10    28 2   
    29    10    29 1   
    30    11    12 ar  
    31    11    29 1   
    32    12    41 1   
    33    13    14 ar  
    34    13    20 ar  
    35    14    15 ar  
    36    14    42 1   
    37    15    16 ar  
    38    15    43 1   
    39    16    19 ar  
    40    16    24 1   
    41    17    18 2   
    42    17    24 1   
    43    17    44 1   
    44    18    19 1   
    45    18    45 1   
    46    19    20 ar  
    47    20    46 1   
    48    22    30 1   
    49    23    47 1   
    50    24    48 1   
    51    26    30 2   
    52    27    30 2   
@<TRIPOS>SUBSTRUCTURE
     1 MKB         1 TEMP              0 ****  ****    0 ROOT
