@<TRIPOS>MOLECULE
MKB
   48    52     1     0     0
SMALL
abcg2


@<TRIPOS>ATOM
      1 C02         -1.5260    15.4460   -15.8770 c          1 MKB       0.621700
      2 C04         -2.9520    15.7320   -17.8320 c6         1 MKB       0.096500
      3 C05         -3.9900    14.6440   -18.0520 c6         1 MKB       0.158800
      4 C07         -4.9420    15.1650   -15.8740 c6         1 MKB       0.158800
      5 C08         -3.8810    16.2390   -15.6710 c6         1 MKB       0.096500
      6 C12         -6.3180    12.4960   -17.2220 ca         1 MKB      -0.318500
      7 C13         -5.6090    11.6540   -18.0760 ca         1 MKB      -0.003000
      8 C14         -5.2780    10.3610   -17.6900 ca         1 MKB      -0.130000
      9 C15         -5.6880     9.9580   -16.4340 ca         1 MKB       0.046600
     10 C17         -6.1380     8.9140   -14.5000 c          1 MKB       0.687100
     11 C20         -6.4020    10.8120   -15.6020 ca         1 MKB       0.026100
     12 C21         -6.7440    12.0900   -15.9550 ca         1 MKB       0.017000
     13 C22         -1.2240    15.8160   -14.4620 ca         1 MKB      -0.183600
     14 C23         -0.7050    14.8250   -13.6070 ca         1 MKB      -0.052000
     15 C24         -0.3140    15.1190   -12.3180 ca         1 MKB      -0.134000
     16 C25         -0.4150    16.4380   -11.9000 ca         1 MKB      -0.032200
     17 C27         -0.3580    18.3560   -10.7670 cc         1 MKB      -0.159100
     18 C28         -0.8670    18.6740   -11.9910 cd         1 MKB      -0.233200
     19 C29         -0.9160    17.4580   -12.7410 ca         1 MKB      -0.111800
     20 C30         -1.3280    17.1290   -14.0340 ca         1 MKB      -0.025000
     21 N03         -2.6820    15.9210   -16.4220 n          1 MKB      -0.409800
     22 N06         -5.2000    14.9900   -17.3050 n3         1 MKB      -0.704500
     23 N16         -5.5450     8.7940   -15.7220 ns         1 MKB      -0.520600
     24 N26         -0.0870    17.0170   -10.7120 na         1 MKB      -0.222700
     25 O01         -0.7250    14.7840   -16.5170 o          1 MKB      -0.589100
     26 O10         -6.6830    14.2160   -19.1610 o          1 MKB      -0.529000
     27 O11         -7.6540    14.7240   -16.8970 o          1 MKB      -0.529000
     28 O18         -6.2080     8.1330   -13.5920 o          1 MKB      -0.489000
     29 O19         -6.6850    10.1640   -14.4410 os         1 MKB      -0.282200
     30 S09         -6.5840    14.1740   -17.7120 sy         1 MKB       1.152600
     31 H1          -2.0390    15.4680   -18.3570 h1         1 MKB       0.071200
     32 H2          -3.3230    16.6740   -18.2450 h1         1 MKB       0.071200
     33 H3          -4.2140    14.5790   -19.1150 h1         1 MKB       0.063700
     34 H4          -3.5840    13.6780   -17.7230 h1         1 MKB       0.063700
     35 H5          -5.8500    15.4810   -15.3660 h1         1 MKB       0.063700
     36 H6          -4.6000    14.2260   -15.4180 h1         1 MKB       0.063700
     37 H7          -3.6680    16.3010   -14.6080 h1         1 MKB       0.071200
     38 H8          -4.2670    17.2100   -15.9920 h1         1 MKB       0.071200
     39 H9          -5.3120    11.9950   -19.0580 ha         1 MKB       0.141000
     40 H10         -4.7290     9.7050   -18.3500 ha         1 MKB       0.135000
     41 H11         -7.3140    12.7300   -15.2960 ha         1 MKB       0.162000
     42 H12         -0.6200    13.8080   -13.9670 ha         1 MKB       0.124000
     43 H13          0.0700    14.3470   -11.6640 ha         1 MKB       0.119000
     44 H14         -0.1600    18.9880    -9.9160 h4         1 MKB       0.215000
     45 H15         -1.1730    19.6550   -12.3180 ha         1 MKB       0.209000
     46 H16         -1.7020    17.9000   -14.6980 ha         1 MKB       0.123000
     47 H17         -5.0460     7.9690   -16.0150 hn         1 MKB       0.481000
     48 H18          0.3050    16.5390    -9.9190 hn         1 MKB       0.352000
@<TRIPOS>BOND
     1     1    13 1   
     2     1    21 1   
     3     1    25 2   
     4     2     3 1   
     5     2    21 1   
     6     2    31 1   
     7     2    32 1   
     8     3    22 1   
     9     3    33 1   
    10     3    34 1   
    11     4     5 1   
    12     4    22 1   
    13     4    35 1   
    14     4    36 1   
    15     5    21 1   
    16     5    37 1   
    17     5    38 1   
    18     6     7 ar  
    19     6    12 ar  
    20     6    30 1   
    21     7     8 ar  
    22     7    39 1   
    23     8     9 ar  
    24     8    40 1   
    25     9    11 ar  
    26     9    23 1   
    27    10    23 1   
    28    10    28 2   
    29    10    29 1   
    30    11    12 ar  
    31    11    29 1   
    32    12    41 1   
    33    13    14 ar  
    34    13    20 ar  
    35    14    15 ar  
    36    14    42 1   
    37    15    16 ar  
    38    15    43 1   
    39    16    19 ar  
    40    16    24 1   
    41    17    18 2   
    42    17    24 1   
    43    17    44 1   
    44    18    19 1   
    45    18    45 1   
    46    19    20 ar  
    47    20    46 1   
    48    22    30 1   
    49    23    47 1   
    50    24    48 1   
    51    26    30 2   
    52    27    30 2   
@<TRIPOS>SUBSTRUCTURE
     1 MKB         1 TEMP              0 ****  ****    0 ROOT
