@<TRIPOS>MOLECULE
MKC
   44    45     1     0     0
SMALL
No Charge or Current Charge


@<TRIPOS>ATOM
      1 C1           1.4910     0.6950    -1.1880 ca         1 MKC      -0.064300
      2 C2           2.7790     1.2150    -1.4280 ca         1 MKC      -0.105000
      3 C3           3.7640     0.4220    -2.0410 ca         1 MKC      -0.108000
      4 C4           3.4680    -0.8970    -2.4240 ca         1 MKC      -0.112000
      5 C5           2.1850    -1.4210    -2.1940 ca         1 MKC      -0.108000
      6 C6           1.2010    -0.6280    -1.5800 ca         1 MKC      -0.105000
      7 C7          -0.3970     0.8050     0.5360 cc         1 MKC       0.111400
      8 N8          -1.7670     0.5430     0.2980 n          1 MKC      -0.351000
      9 C9          -2.5410    -0.2120     1.1940 c          1 MKC       0.615000
     10 O9          -3.7230    -0.4630     1.0290 o          1 MKC      -0.568000
     11 N10         -1.9100    -0.6670     2.2910 ns         1 MKC      -0.464500
     12 C11         -0.6270    -0.4850     2.6650 c          1 MKC       0.589200
     13 O11         -0.2300    -0.9760     3.7090 o          1 MKC      -0.530000
     14 C12          0.1870     0.3250     1.7120 cd         1 MKC      -0.261400
     15 C13          0.4260     1.5590    -0.5120 c3         1 MKC      -0.002900
     16 C14          1.6550     0.5520     2.1090 c3         1 MKC       0.009500
     17 C15          1.8160     1.3490     3.4260 c3         1 MKC      -0.086600
     18 C16          2.4880    -0.7500     2.0940 c3         1 MKC      -0.086600
     19 C17         -2.4950     1.1100    -0.8680 c3         1 MKC       0.323000
     20 O17         -2.1700     0.3730    -2.0630 os         1 MKC      -0.453000
     21 C18         -2.6910    -0.9650    -2.1280 c3         1 MKC       0.156600
     22 C19         -2.2690    -1.5570    -3.4810 c3         1 MKC      -0.096100
     23 H2           3.0210     2.2350    -1.1360 ha         1 MKC       0.113500
     24 H3           4.7570     0.8290    -2.2200 ha         1 MKC       0.114000
     25 H4           4.2300    -1.5110    -2.8990 ha         1 MKC       0.114000
     26 H5           1.9530    -2.4420    -2.4900 ha         1 MKC       0.114000
     27 H6           0.2140    -1.0460    -1.4050 ha         1 MKC       0.113500
     28 HN1         -2.4750    -1.2100     2.9230 hn         1 MKC       0.344500
     29 H131        -0.1790     2.0080    -1.3020 hc         1 MKC       0.070200
     30 H132         0.8920     2.4250    -0.0270 hc         1 MKC       0.070200
     31 H14          2.1410     1.1910     1.3680 hc         1 MKC       0.044700
     32 H151         2.8620     1.6490     3.5640 hc         1 MKC       0.039367
     33 H152         1.2050     2.2590     3.4000 hc         1 MKC       0.039367
     34 H153         1.5240     0.7610     4.3030 hc         1 MKC       0.039367
     35 H161         2.1840    -1.4380     2.8910 hc         1 MKC       0.039367
     36 H162         2.3750    -1.2660     1.1340 hc         1 MKC       0.039367
     37 H163         3.5520    -0.5260     2.2330 hc         1 MKC       0.039367
     38 H171        -2.2120     2.1640    -0.9610 h2         1 MKC       0.078200
     39 H172        -3.5750     1.0970    -0.6800 h2         1 MKC       0.078200
     40 H181        -3.7860    -0.9630    -2.0530 h1         1 MKC       0.033200
     41 H182        -2.2850    -1.5870    -1.3200 h1         1 MKC       0.033200
     42 H191        -2.6400    -2.5840    -3.5780 hc         1 MKC       0.046700
     43 H192        -2.6790    -0.9630    -4.3070 hc         1 MKC       0.046700
     44 H193        -1.1770    -1.5760    -3.5720 hc         1 MKC       0.046700
@<TRIPOS>BOND
     1     1     2 ar  
     2     1     6 ar  
     3     1    15 1   
     4     2     3 ar  
     5     2    23 1   
     6     3     4 ar  
     7     3    24 1   
     8     4     5 ar  
     9     4    25 1   
    10     5     6 ar  
    11     5    26 1   
    12     6    27 1   
    13     7     8 1   
    14     7    14 2   
    15     7    15 1   
    16     8     9 1   
    17     8    19 1   
    18     9    10 2   
    19     9    11 1   
    20    11    12 1   
    21    11    28 1   
    22    12    13 2   
    23    12    14 1   
    24    14    16 1   
    25    15    29 1   
    26    15    30 1   
    27    16    17 1   
    28    16    18 1   
    29    16    31 1   
    30    17    32 1   
    31    17    33 1   
    32    17    34 1   
    33    18    35 1   
    34    18    36 1   
    35    18    37 1   
    36    19    20 1   
    37    19    38 1   
    38    19    39 1   
    39    20    21 1   
    40    21    22 1   
    41    21    40 1   
    42    21    41 1   
    43    22    42 1   
    44    22    43 1   
    45    22    44 1   
@<TRIPOS>SUBSTRUCTURE
     1 MKC         1 TEMP              0 ****  ****    0 ROOT
