@<TRIPOS>MOLECULE
MKC
   44    45     1     0     0
SMALL
bcc


@<TRIPOS>ATOM
      1 C1           1.2760     0.5630    -1.1910 ca         1 MKC      -0.064300
      2 C2           1.8470     1.1590    -2.3140 ca         1 MKC      -0.123000
      3 C3           2.5510     0.4050    -3.2400 ca         1 MKC      -0.126000
      4 C4           2.6940    -0.9660    -3.0610 ca         1 MKC      -0.130000
      5 C5           2.1260    -1.5680    -1.9490 ca         1 MKC      -0.126000
      6 C6           1.4230    -0.8080    -1.0210 ca         1 MKC      -0.123000
      7 C7          -0.3480     0.7160     0.7620 cc         1 MKC       0.111400
      8 N8          -1.6720     0.5680     0.3680 n          1 MKC      -0.418000
      9 C9          -2.5800    -0.1440     1.1250 c          1 MKC       0.824500
     10 O9          -3.7280    -0.3530     0.7840 o          1 MKC      -0.643500
     11 N10         -2.0990    -0.5950     2.3170 ns         1 MKC      -0.598500
     12 C11         -0.8280    -0.4400     2.8290 c          1 MKC       0.731700
     13 O11         -0.5860    -0.8500     3.9510 o          1 MKC      -0.605500
     14 C12          0.1150     0.2110     1.9360 cd         1 MKC      -0.261400
     15 C13          0.5640     1.4460    -0.1880 c3         1 MKC      -0.002900
     16 C14          1.5630     0.3030     2.3710 c3         1 MKC       0.009500
     17 C15          1.7540     1.3110     3.5060 c3         1 MKC      -0.086600
     18 C16          2.1790    -1.0560     2.7130 c3         1 MKC      -0.086600
     19 C17         -2.1750     1.1700    -0.8740 c3         1 MKC       0.299800
     20 O17         -1.5900     0.6510    -2.0120 os         1 MKC      -0.406600
     21 C18         -1.9100    -0.7000    -2.2950 c3         1 MKC       0.133400
     22 C19         -1.2820    -1.0710    -3.6180 c3         1 MKC      -0.096100
     23 H2           1.7350     2.2260    -2.4670 ha         1 MKC       0.131500
     24 H3           2.9850     0.8880    -4.1060 ha         1 MKC       0.132000
     25 H4           3.2410    -1.5570    -3.7850 ha         1 MKC       0.132000
     26 H5           2.2250    -2.6360    -1.7990 ha         1 MKC       0.132000
     27 H6           0.9810    -1.3040    -0.1660 ha         1 MKC       0.131500
     28 HN1         -2.7660    -1.0850     2.8990 hn         1 MKC       0.344500
     29 H131         0.0300     2.2290    -0.7230 hc         1 MKC       0.070200
     30 H132         1.3090     1.9840     0.3980 hc         1 MKC       0.070200
     31 H14          2.1420     0.6690     1.5220 hc         1 MKC       0.044700
     32 H151         2.8140     1.4230     3.7370 hc         1 MKC       0.039367
     33 H152         1.3690     2.2930     3.2290 hc         1 MKC       0.039367
     34 H153         1.2470     0.9920     4.4160 hc         1 MKC       0.039367
     35 H161         1.7670    -1.4840     3.6240 hc         1 MKC       0.039367
     36 H162         2.0350    -1.7730     1.9040 hc         1 MKC       0.039367
     37 H163         3.2540    -0.9390     2.8570 hc         1 MKC       0.039367
     38 H171        -1.9660     2.2380    -0.8560 h2         1 MKC       0.078200
     39 H172        -3.2570     1.0360    -0.8670 h2         1 MKC       0.078200
     40 H181        -2.9990    -0.8310    -2.3310 h1         1 MKC       0.033200
     41 H182        -1.5280    -1.3610    -1.5080 h1         1 MKC       0.033200
     42 H191        -1.4880    -2.1180    -3.8400 hc         1 MKC       0.046700
     43 H192        -1.6820    -0.4690    -4.4340 hc         1 MKC       0.046700
     44 H193        -0.2000    -0.9400    -3.5810 hc         1 MKC       0.046700
@<TRIPOS>BOND
     1     1     2 ar  
     2     1     6 ar  
     3     1    15 1   
     4     2     3 ar  
     5     2    23 1   
     6     3     4 ar  
     7     3    24 1   
     8     4     5 ar  
     9     4    25 1   
    10     5     6 ar  
    11     5    26 1   
    12     6    27 1   
    13     7     8 1   
    14     7    14 2   
    15     7    15 1   
    16     8     9 1   
    17     8    19 1   
    18     9    10 2   
    19     9    11 1   
    20    11    12 1   
    21    11    28 1   
    22    12    13 2   
    23    12    14 1   
    24    14    16 1   
    25    15    29 1   
    26    15    30 1   
    27    16    17 1   
    28    16    18 1   
    29    16    31 1   
    30    17    32 1   
    31    17    33 1   
    32    17    34 1   
    33    18    35 1   
    34    18    36 1   
    35    18    37 1   
    36    19    20 1   
    37    19    38 1   
    38    19    39 1   
    39    20    21 1   
    40    21    22 1   
    41    21    40 1   
    42    21    41 1   
    43    22    42 1   
    44    22    43 1   
    45    22    44 1   
@<TRIPOS>SUBSTRUCTURE
     1 MKC         1 TEMP              0 ****  ****    0 ROOT
