@<TRIPOS>MOLECULE
MKD
   30    29     1     0     0
SMALL
No Charge or Current Charge


@<TRIPOS>ATOM
      1 O           37.0630    -4.1510    12.4400 o          1 MKD      -0.730000
      2 C           36.7400    -5.2550    12.0150 c          1 MKD       0.728000
      3 CA          35.3390    -5.8880    12.4700 c3         1 MKD       0.035200
      4 CB1         34.2020    -4.9650    11.9530 c3         1 MKD      -0.044100
      5 N           35.0610    -7.2700    11.9280 n8         1 MKD      -0.990200
      6 CB          35.2720    -5.9690    14.0300 c3         1 MKD      -0.080400
      7 CG          36.3720    -6.8350    14.6990 c3         1 MKD      -0.073400
      8 CD          36.2650    -6.8560    16.2400 c3         1 MKD      -0.074400
      9 CE          37.3580    -7.7160    16.9120 c3         1 MKD      -0.076400
     10 CF          37.2500    -7.7360    18.4530 c3         1 MKD      -0.075400
     11 CH          38.3400    -8.5940    19.1240 c3         1 MKD      -0.086100
     12 O1          37.4490    -5.8960    11.2470 o          1 MKD      -0.730000
     13 H1          33.2150    -5.3560    12.2300 hc         1 MKD       0.015033
     14 H2          34.2920    -3.9570    12.3760 hc         1 MKD       0.015033
     15 H3          34.2400    -4.8750    10.8610 hc         1 MKD       0.015033
     16 H4          35.3230    -7.2760    10.9350 hn         1 MKD       0.377500
     17 H5          35.7400    -7.9160    12.3420 hn         1 MKD       0.377500
     18 H7          35.3330    -4.9540    14.4420 hc         1 MKD       0.020200
     19 H8          34.2900    -6.3570    14.3300 hc         1 MKD       0.020200
     20 H9          36.3100    -7.8650    14.3270 hc         1 MKD       0.047200
     21 H10         37.3610    -6.4530    14.4190 hc         1 MKD       0.047200
     22 H11         36.3310    -5.8290    16.6200 hc         1 MKD       0.025700
     23 H12         35.2780    -7.2410    16.5270 hc         1 MKD       0.025700
     24 H13         37.2920    -8.7440    16.5340 hc         1 MKD       0.037700
     25 H14         38.3450    -7.3320    16.6260 hc         1 MKD       0.037700
     26 H15         37.3180    -6.7110    18.8360 hc         1 MKD       0.030700
     27 H16         36.2640    -8.1220    18.7430 hc         1 MKD       0.030700
     28 H17         38.2220    -8.5770    20.2140 hc         1 MKD       0.025033
     29 H18         38.2760    -9.6360    18.7870 hc         1 MKD       0.025033
     30 H19         39.3380    -8.2110    18.8810 hc         1 MKD       0.025033
@<TRIPOS>BOND
     1     1     2 1   
     2     2     3 1   
     3     2    12 1   
     4     3     4 1   
     5     3     5 1   
     6     3     6 1   
     7     4    13 1   
     8     4    14 1   
     9     4    15 1   
    10     5    16 1   
    11     5    17 1   
    12     6     7 1   
    13     6    18 1   
    14     6    19 1   
    15     7     8 1   
    16     7    20 1   
    17     7    21 1   
    18     8     9 1   
    19     8    22 1   
    20     8    23 1   
    21     9    10 1   
    22     9    24 1   
    23     9    25 1   
    24    10    11 1   
    25    10    26 1   
    26    10    27 1   
    27    11    28 1   
    28    11    29 1   
    29    11    30 1   
@<TRIPOS>SUBSTRUCTURE
     1 MKD         1 TEMP              0 ****  ****    0 ROOT
