@<TRIPOS>MOLECULE
MKD
   30    29     1     0     0
SMALL
bcc


@<TRIPOS>ATOM
      1 O           36.8830    -4.0570    12.2090 o          1 MKD      -0.835300
      2 C           36.7250    -5.2790    12.0150 c          1 MKD       0.938600
      3 CA          35.3620    -5.8740    12.4710 c3         1 MKD       0.035200
      4 CB1         34.2080    -4.9840    12.0100 c3         1 MKD      -0.044100
      5 N           35.1700    -7.1910    11.8700 n8         1 MKD      -0.879800
      6 CB          35.3520    -5.9180    14.0150 c3         1 MKD      -0.080400
      7 CG          36.4460    -6.7590    14.6630 c3         1 MKD      -0.073400
      8 CD          36.2790    -6.8720    16.1740 c3         1 MKD      -0.074400
      9 CE          37.3920    -7.6670    16.8440 c3         1 MKD      -0.076400
     10 CF          37.2190    -7.7970    18.3520 c3         1 MKD      -0.075400
     11 CH          38.3450    -8.5800    19.0130 c3         1 MKD      -0.086100
     12 O1          37.5620    -6.0670    11.5300 o          1 MKD      -0.835300
     13 H1          33.2490    -5.4210    12.3020 hc         1 MKD       0.015033
     14 H2          34.2640    -3.9900    12.4500 hc         1 MKD       0.015033
     15 H3          34.2020    -4.8760    10.9240 hc         1 MKD       0.015033
     16 H4          36.0220    -7.7280    11.9670 hn         1 MKD       0.322300
     17 H5          34.4470    -7.6910    12.3750 hn         1 MKD       0.322300
     18 H7          35.4120    -4.8970    14.4030 hc         1 MKD       0.020200
     19 H8          34.3750    -6.3050    14.3340 hc         1 MKD       0.020200
     20 H9          36.4500    -7.7660    14.2320 hc         1 MKD       0.047200
     21 H10         37.4280    -6.3290    14.4440 hc         1 MKD       0.047200
     22 H11         36.2370    -5.8670    16.6100 hc         1 MKD       0.025700
     23 H12         35.3130    -7.3370    16.3990 hc         1 MKD       0.025700
     24 H13         37.4430    -8.6670    16.3990 hc         1 MKD       0.037700
     25 H14         38.3560    -7.1920    16.6290 hc         1 MKD       0.037700
     26 H15         37.1560    -6.7980    18.7950 hc         1 MKD       0.030700
     27 H16         36.2610    -8.2820    18.5650 hc         1 MKD       0.030700
     28 H17         38.1980    -8.6640    20.0900 hc         1 MKD       0.025033
     29 H18         38.4120    -9.5920    18.6090 hc         1 MKD       0.025033
     30 H19         39.3100    -8.0970    18.8480 hc         1 MKD       0.025033
@<TRIPOS>BOND
     1     1     2 1   
     2     2     3 1   
     3     2    12 1   
     4     3     4 1   
     5     3     5 1   
     6     3     6 1   
     7     4    13 1   
     8     4    14 1   
     9     4    15 1   
    10     5    16 1   
    11     5    17 1   
    12     6     7 1   
    13     6    18 1   
    14     6    19 1   
    15     7     8 1   
    16     7    20 1   
    17     7    21 1   
    18     8     9 1   
    19     8    22 1   
    20     8    23 1   
    21     9    10 1   
    22     9    24 1   
    23     9    25 1   
    24    10    11 1   
    25    10    26 1   
    26    10    27 1   
    27    11    28 1   
    28    11    29 1   
    29    11    30 1   
@<TRIPOS>SUBSTRUCTURE
     1 MKD         1 TEMP              0 ****  ****    0 ROOT
