@<TRIPOS>MOLECULE
MKE
   20    19     1     0     0
SMALL
No Charge or Current Charge


@<TRIPOS>ATOM
      1 N            1.2550    -2.0140    -0.1540 n8         1 MKE      -0.971200
      2 CA           1.1990    -0.5300    -0.4030 c3         1 MKE       0.054500
      3 CB          -0.1310     0.0740     0.1340 c3         1 MKE      -0.039400
      4 CG          -1.4130    -0.4610    -0.5590 c3         1 MKE      -0.202400
      5 CD          -2.6500     0.2790    -0.0240 c          1 MKE       0.716000
      6 OE1         -3.2100    -0.1720     0.9630 o          1 MKE      -0.743000
      7 OE2         -2.9860     1.3140    -0.5780 o          1 MKE      -0.743000
      8 C            2.4390     0.2810     0.1250 c          1 MKE       0.540100
      9 O            3.1470    -0.1270     1.0410 o          1 MKE      -0.558100
     10 CMK          2.7600     1.5970    -0.5910 c3         1 MKE      -0.200100
     11 HN1          2.1220    -2.3940    -0.5550 hn         1 MKE       0.388500
     12 HN2          1.3740    -2.1770     0.8530 hn         1 MKE       0.388500
     13 HA           1.1990    -0.3880    -1.4930 h1         1 MKE       0.062700
     14 HB1         -0.1990    -0.1010     1.2160 hc         1 MKE       0.044700
     15 HB2         -0.1050     1.1630     0.0020 hc         1 MKE       0.044700
     16 HG1         -1.2830    -0.2590    -1.6300 hc         1 MKE       0.026200
     17 HG2         -1.4760    -1.5280    -0.3150 hc         1 MKE       0.026200
     18 HMK1         3.6810     2.0650    -0.2240 hc         1 MKE       0.055033
     19 HMK2         2.7970     1.4170    -1.6720 hc         1 MKE       0.055033
     20 HMK3         1.9050     2.2760    -0.5000 hc         1 MKE       0.055033
@<TRIPOS>BOND
     1     1     2 1   
     2     1    11 1   
     3     1    12 1   
     4     2     3 1   
     5     2     8 1   
     6     2    13 1   
     7     3     4 1   
     8     3    14 1   
     9     3    15 1   
    10     4     5 1   
    11     4    16 1   
    12     4    17 1   
    13     5     6 1   
    14     5     7 1   
    15     8     9 2   
    16     8    10 1   
    17    10    18 1   
    18    10    19 1   
    19    10    20 1   
@<TRIPOS>SUBSTRUCTURE
     1 MKE         1 TEMP              0 ****  ****    0 ROOT
