@<TRIPOS>MOLECULE
MKE
   20    19     1     0     0
SMALL
abcg2


@<TRIPOS>ATOM
      1 N            1.2520    -1.9070     0.0170 n8         1 MKE      -0.971200
      2 CA           1.1960    -0.5180    -0.3840 c3         1 MKE       0.054500
      3 CB          -0.0710     0.1520     0.1700 c3         1 MKE      -0.039400
      4 CG          -1.3430    -0.4270    -0.4260 c3         1 MKE      -0.202400
      5 CD          -2.6540     0.2120     0.0620 c          1 MKE       0.716000
      6 OE1         -3.7040    -0.2750    -0.4100 o          1 MKE      -0.743000
      7 OE2         -2.5800     1.1550     0.8750 o          1 MKE      -0.743000
      8 C            2.3990     0.3140     0.0380 c          1 MKE       0.540100
      9 O            3.0790     0.0100     0.9940 o          1 MKE      -0.558100
     10 CMK          2.7010     1.5220    -0.8050 c3         1 MKE      -0.200100
     11 HN1          2.0640    -2.3550    -0.3890 hn         1 MKE       0.388500
     12 HN2          1.3750    -1.9660     1.0210 hn         1 MKE       0.388500
     13 HA           1.1410    -0.4790    -1.4790 h1         1 MKE       0.062700
     14 HB1         -0.0740     0.0430     1.2590 hc         1 MKE       0.044700
     15 HB2         -0.0350     1.2260    -0.0230 hc         1 MKE       0.044700
     16 HG1         -1.3050    -0.3300    -1.5180 hc         1 MKE       0.026200
     17 HG2         -1.3830    -1.5030    -0.2380 hc         1 MKE       0.026200
     18 HMK1         3.2920     2.2580    -0.2630 hc         1 MKE       0.055033
     19 HMK2         3.2780     1.1930    -1.6730 hc         1 MKE       0.055033
     20 HMK3         1.7960     1.9900    -1.1920 hc         1 MKE       0.055033
@<TRIPOS>BOND
     1     1     2 1   
     2     1    11 1   
     3     1    12 1   
     4     2     3 1   
     5     2     8 1   
     6     2    13 1   
     7     3     4 1   
     8     3    14 1   
     9     3    15 1   
    10     4     5 1   
    11     4    16 1   
    12     4    17 1   
    13     5     6 1   
    14     5     7 1   
    15     8     9 2   
    16     8    10 1   
    17    10    18 1   
    18    10    19 1   
    19    10    20 1   
@<TRIPOS>SUBSTRUCTURE
     1 MKE         1 TEMP              0 ****  ****    0 ROOT
