@<TRIPOS>MOLECULE
MKF
   23    22     1     0     0
SMALL
No Charge or Current Charge


@<TRIPOS>ATOM
      1 C1          14.7550    37.3250    42.8050 c3         1 MKF       0.105300
      2 C2          15.7760    39.1550    41.3670 c3         1 MKF       0.105300
      3 C           16.3940    36.7650    40.9740 c          1 MKF       0.646100
      4 O           17.1440    37.0540    40.0510 o          1 MKF      -0.572000
      5 N           15.6610    37.7200    41.7020 n          1 MKF      -0.410800
      6 N1          17.3310    31.9260    41.0000 n8         1 MKF      -1.002200
      7 CA          16.4400    33.0810    41.4270 c3         1 MKF       0.009500
      8 C3          14.8810    32.8610    41.2690 c          1 MKF       0.727000
      9 O1          14.2420    32.5470    42.2660 o          1 MKF      -0.725500
     10 CB          16.8550    34.4170    40.7530 c3         1 MKF       0.211600
     11 OG          16.1690    35.4920    41.4180 os         1 MKF      -0.428100
     12 OXT         14.3820    32.9170    40.1510 o          1 MKF      -0.725500
     13 H1          14.2540    38.2030    43.2320 h1         1 MKF       0.033867
     14 H2          13.9910    36.6340    42.4280 h1         1 MKF       0.033867
     15 H3          15.3320    36.8300    43.5970 h1         1 MKF       0.033867
     16 H4          15.2100    39.7700    42.0780 h1         1 MKF       0.033867
     17 H5          16.8300    39.4580    41.4000 h1         1 MKF       0.033867
     18 H6          15.3840    39.3280    40.3560 h1         1 MKF       0.033867
     19 H10         16.6260    33.2020    42.5030 h1         1 MKF       0.009700
     20 H11         17.9420    34.5500    40.8460 h1         1 MKF       0.036200
     21 H12         16.6030    34.3920    39.6840 h1         1 MKF       0.036200
     22 H7          18.3000    32.1120    41.2860 hn         1 MKF       0.386500
     23 H8          17.0770    31.0870    41.5390 hn         1 MKF       0.386500
@<TRIPOS>BOND
     1     1     5 1   
     2     1    13 1   
     3     1    14 1   
     4     1    15 1   
     5     2     5 1   
     6     2    16 1   
     7     2    17 1   
     8     2    18 1   
     9     3     4 2   
    10     3     5 1   
    11     3    11 1   
    12     6     7 1   
    13     6    22 1   
    14     6    23 1   
    15     7     8 1   
    16     7    10 1   
    17     7    19 1   
    18     8     9 1   
    19     8    12 1   
    20    10    11 1   
    21    10    20 1   
    22    10    21 1   
@<TRIPOS>SUBSTRUCTURE
     1 MKF         1 TEMP              0 ****  ****    0 ROOT
