@<TRIPOS>MOLECULE
MKF
   23    22     1     0     0
SMALL
bcc


@<TRIPOS>ATOM
      1 C1          14.8370    37.3940    42.7900 c3         1 MKF       0.105300
      2 C2          15.7580    39.0620    41.2130 c3         1 MKF       0.105300
      3 C           16.4030    36.7520    41.0140 c          1 MKF       0.762100
      4 O           17.0700    36.9650    40.0180 o          1 MKF      -0.621000
      5 N           15.7800    37.7130    41.7360 n          1 MKF      -0.477800
      6 N1          17.3510    32.1120    41.1680 n8         1 MKF      -0.891800
      7 CA          16.3990    33.1480    41.5460 c3         1 MKF       0.009500
      8 C3          14.9650    32.7010    41.1520 c          1 MKF       0.937600
      9 O1          14.7110    31.4940    41.3440 o          1 MKF      -0.830800
     10 CB          16.8460    34.4380    40.8790 c3         1 MKF       0.188400
     11 OG          16.2150    35.5400    41.5290 os         1 MKF      -0.404900
     12 OXT         14.1900    33.5670    40.7110 o          1 MKF      -0.830800
     13 H1          14.6740    38.2870    43.3900 h1         1 MKF       0.033867
     14 H2          13.8680    37.0690    42.4000 h1         1 MKF       0.033867
     15 H3          15.2210    36.6200    43.4490 h1         1 MKF       0.033867
     16 H4          15.6450    39.7620    42.0390 h1         1 MKF       0.033867
     17 H5          16.6890    39.2930    40.7030 h1         1 MKF       0.033867
     18 H6          14.9320    39.2260    40.5160 h1         1 MKF       0.033867
     19 H10         16.3830    33.3200    42.6360 h1         1 MKF       0.009700
     20 H11         17.9310    34.5430    40.9720 h1         1 MKF       0.036200
     21 H12         16.6030    34.4230    39.8140 h1         1 MKF       0.036200
     22 H7          18.1840    32.1780    41.7390 hn         1 MKF       0.331300
     23 H8          16.9260    31.2180    41.3730 hn         1 MKF       0.331300
@<TRIPOS>BOND
     1     1     5 1   
     2     1    13 1   
     3     1    14 1   
     4     1    15 1   
     5     2     5 1   
     6     2    16 1   
     7     2    17 1   
     8     2    18 1   
     9     3     4 2   
    10     3     5 1   
    11     3    11 1   
    12     6     7 1   
    13     6    22 1   
    14     6    23 1   
    15     7     8 1   
    16     7    10 1   
    17     7    19 1   
    18     8     9 1   
    19     8    12 1   
    20    10    11 1   
    21    10    20 1   
    22    10    21 1   
@<TRIPOS>SUBSTRUCTURE
     1 MKF         1 TEMP              0 ****  ****    0 ROOT
