@<TRIPOS>MOLECULE
MKG
   59    62     1     0     0
SMALL
abcg2


@<TRIPOS>ATOM
      1 N1          14.3550     1.8270    53.0960 n3         1 MKG      -0.723600
      2 C2          12.9350     2.7210    55.5220 c6         1 MKG       0.203000
      3 C3          13.9160     1.5440    55.5070 c6         1 MKG      -0.078400
      4 C5          15.3500     1.8930    52.0330 c3         1 MKG       0.149800
      5 C6          16.0700     0.5760    51.7570 c3         1 MKG       0.114700
      6 C9          14.2280    -2.6760    51.0420 ca         1 MKG      -0.160600
      7 C1          14.0770     4.2100    57.0950 c          1 MKG       0.705100
      8 C10         13.4470    -2.3580    49.9290 ca         1 MKG      -0.048000
      9 C11         12.5080    -3.2580    49.4400 ca         1 MKG      -0.158500
     10 C12         12.3630    -4.4720    50.0860 ca         1 MKG       0.184000
     11 C13         13.1180    -4.8230    51.1910 ca         1 MKG      -0.158500
     12 C14         14.0590    -3.9170    51.6590 ca         1 MKG      -0.048000
     13 C15         13.4970     3.0110    53.0680 c6         1 MKG       0.165300
     14 C16         12.3940     2.9330    54.1140 c6         1 MKG      -0.078400
     15 C17         11.8260     2.5240    56.5770 c6         1 MKG      -0.051400
     16 C18         10.6900     3.5180    56.4510 ca         1 MKG      -0.059300
     17 C19          9.5080     3.1220    55.8200 ca         1 MKG      -0.125000
     18 C20          8.4470     4.0050    55.6610 ca         1 MKG      -0.086000
     19 C21          8.5370     5.3110    56.1340 ca         1 MKG      -0.141000
     20 C22          9.7100     5.6810    56.7640 ca         1 MKG       0.167000
     21 C23         10.7820     4.8250    56.9350 ca         1 MKG      -0.129000
     22 C24         12.4710     2.4890    57.9630 c6         1 MKG       0.122000
     23 C4          14.9690     1.6770    54.4150 c6         1 MKG       0.165300
     24 C7          17.1360     0.7630    50.6760 c3         1 MKG      -0.109100
     25 F1          11.4510    -5.3550    49.6130 f          1 MKG      -0.180000
     26 F2           9.8210     6.9490    57.2430 f          1 MKG      -0.180000
     27 N2          15.1000    -0.4420    51.3680 ns         1 MKG      -0.490900
     28 N3          13.5010     3.5120    58.0910 ns         1 MKG      -0.550900
     29 O1          14.9060     5.0940    57.2750 o          1 MKG      -0.559000
     30 O2          13.6760     3.9460    55.8360 os         1 MKG      -0.445100
     31 O3          16.2640    -2.2040    52.1850 o          1 MKG      -0.616100
     32 H2          13.3380     0.6320    55.3460 hc         1 MKG       0.060450
     33 H3          14.4170     1.4480    56.4710 hc         1 MKG       0.060450
     34 H4          16.1150     2.6570    52.2460 h1         1 MKG       0.040700
     35 H5          14.8390     2.2030    51.1170 h1         1 MKG       0.040700
     36 H6          16.5570     0.2170    52.6630 h1         1 MKG       0.077700
     37 H7          13.5800    -1.4180    49.4100 ha         1 MKG       0.128500
     38 H8          11.9070    -3.0290    48.5700 ha         1 MKG       0.136000
     39 H9          12.9720    -5.7840    51.6660 ha         1 MKG       0.136000
     40 H10         14.6730    -4.1680    52.5130 ha         1 MKG       0.128500
     41 H11         14.0890     3.9290    53.2230 h1         1 MKG       0.045950
     42 H12         13.0460     3.0840    52.0770 h1         1 MKG       0.045950
     43 H13         11.7980     3.8450    54.0810 hc         1 MKG       0.060450
     44 H14         11.7300     2.0960    53.8830 hc         1 MKG       0.060450
     45 H15         11.4050     1.5350    56.3970 hc         1 MKG       0.071700
     46 H16          9.4230     2.1100    55.4470 ha         1 MKG       0.114000
     47 H17          7.5410     3.6780    55.1670 ha         1 MKG       0.120000
     48 H18          7.7270     6.0180    56.0250 ha         1 MKG       0.136000
     49 H19         11.6590     5.1890    57.4480 ha         1 MKG       0.143000
     50 H20         11.7170     2.6610    58.7320 h1         1 MKG       0.051200
     51 H21         12.9060     1.5040    58.1430 h1         1 MKG       0.051200
     52 H22         15.5890     0.7820    54.4220 h1         1 MKG       0.045950
     53 H23         15.6300     2.5320    54.6350 h1         1 MKG       0.045950
     54 H24         17.8880     1.4810    51.0050 hc         1 MKG       0.045033
     55 H25         17.6320    -0.1850    50.4660 hc         1 MKG       0.045033
     56 H26         16.6840     1.1310    49.7520 hc         1 MKG       0.045033
     57 H27         14.2410    -0.1290    50.9460 hn         1 MKG       0.318500
     58 H28         13.8350     3.7360    59.0150 hn         1 MKG       0.333500
     59 C8          15.2830    -1.7570    51.5810 c          1 MKG       0.610700
@<TRIPOS>BOND
     1     1     4 1   
     2     1    13 1   
     3     1    23 1   
     4     2     3 1   
     5     2    14 1   
     6     2    15 1   
     7     2    30 1   
     8     3    23 1   
     9     3    32 1   
    10     3    33 1   
    11     4     5 1   
    12     4    34 1   
    13     4    35 1   
    14     5    24 1   
    15     5    27 1   
    16     5    36 1   
    17     6     8 ar  
    18     6    12 ar  
    19     6    59 1   
    20     7    28 1   
    21     7    29 2   
    22     7    30 1   
    23     8     9 ar  
    24     8    37 1   
    25     9    10 ar  
    26     9    38 1   
    27    10    11 ar  
    28    10    25 1   
    29    11    12 ar  
    30    11    39 1   
    31    12    40 1   
    32    13    14 1   
    33    13    41 1   
    34    13    42 1   
    35    14    43 1   
    36    14    44 1   
    37    15    16 1   
    38    15    22 1   
    39    15    45 1   
    40    16    17 ar  
    41    16    21 ar  
    42    17    18 ar  
    43    17    46 1   
    44    18    19 ar  
    45    18    47 1   
    46    19    20 ar  
    47    19    48 1   
    48    20    21 ar  
    49    20    26 1   
    50    21    49 1   
    51    22    28 1   
    52    22    50 1   
    53    22    51 1   
    54    23    52 1   
    55    23    53 1   
    56    24    54 1   
    57    24    55 1   
    58    24    56 1   
    59    27    57 1   
    60    27    59 1   
    61    28    58 1   
    62    31    59 2   
@<TRIPOS>SUBSTRUCTURE
     1 MKG         1 TEMP              0 ****  ****    0 ROOT
