@<TRIPOS>MOLECULE
MKG
   59    62     1     0     0
SMALL
No Charge or Current Charge


@<TRIPOS>ATOM
      1 N1          14.5150     2.0030    52.8930 n3         1 MKG      -0.723600
      2 C2          12.8990     2.6290    55.3390 c6         1 MKG       0.203000
      3 C3          13.7520     1.3290    55.1810 c6         1 MKG      -0.078400
      4 C5          15.6240     2.0970    51.9030 c3         1 MKG       0.149800
      5 C6          16.3310     0.7520    51.5720 c3         1 MKG       0.114700
      6 C9          14.3640    -2.5670    51.3830 ca         1 MKG      -0.160600
      7 C1          14.0110     3.6230    57.3180 c          1 MKG       0.705100
      8 C10         13.0470    -2.0570    51.2490 ca         1 MKG      -0.048000
      9 C11         11.9490    -2.9320    51.1690 ca         1 MKG      -0.158500
     10 C12         12.1500    -4.3180    51.2200 ca         1 MKG       0.184000
     11 C13         13.4430    -4.8380    51.3530 ca         1 MKG      -0.158500
     12 C14         14.5450    -3.9690    51.4340 ca         1 MKG      -0.048000
     13 C15         13.7560     3.2760    53.0010 c6         1 MKG       0.165300
     14 C16         12.5180     3.1210    53.9130 c6         1 MKG      -0.078400
     15 C17         11.6240     2.3530    56.1980 c6         1 MKG      -0.051400
     16 C18         10.5650     3.4760    56.1250 ca         1 MKG      -0.059300
     17 C19          9.4150     3.2890    55.3280 ca         1 MKG      -0.125000
     18 C20          8.4350     4.2930    55.2310 ca         1 MKG      -0.086000
     19 C21          8.5940     5.4990    55.9320 ca         1 MKG      -0.141000
     20 C22          9.7330     5.6930    56.7260 ca         1 MKG       0.167000
     21 C23         10.7130     4.6940    56.8250 ca         1 MKG      -0.129000
     22 C24         12.0450     2.0340    57.6490 c6         1 MKG       0.122000
     23 C4          14.9580     1.5380    54.2380 c6         1 MKG       0.165300
     24 C7          17.2610     0.8780    50.3460 c3         1 MKG      -0.109100
     25 F1          11.0920    -5.1540    51.1430 f          1 MKG      -0.180000
     26 F2           9.8890     6.8530    57.4010 f          1 MKG      -0.180000
     27 N2          15.3340    -0.3070    51.3850 ns         1 MKG      -0.490900
     28 N3          13.2110     2.8130    58.0890 ns         1 MKG      -0.550900
     29 O1          14.8650     4.3370    57.8110 o          1 MKG      -0.559000
     30 O2          13.6940     3.6480    55.9850 os         1 MKG      -0.445100
     31 O3          16.7060    -2.0980    51.6370 o          1 MKG      -0.616100
     32 H2          13.1270     0.5210    54.7780 hc         1 MKG       0.060450
     33 H3          14.1210     0.9750    56.1510 hc         1 MKG       0.060450
     34 H4          16.3810     2.8150    52.2490 h1         1 MKG       0.040700
     35 H5          15.2200     2.4930    50.9610 h1         1 MKG       0.040700
     36 H6          16.9510     0.4790    52.4370 h1         1 MKG       0.077700
     37 H7          12.8540    -0.9870    51.2100 ha         1 MKG       0.128500
     38 H8          10.9420    -2.5360    51.0670 ha         1 MKG       0.136000
     39 H9          13.5920    -5.9140    51.3930 ha         1 MKG       0.136000
     40 H10         15.5430    -4.3910    51.5370 ha         1 MKG       0.128500
     41 H11         14.4010     4.0750    53.3970 h1         1 MKG       0.045950
     42 H12         13.4160     3.6020    52.0070 h1         1 MKG       0.045950
     43 H13         11.9990     4.0870    53.9660 hc         1 MKG       0.060450
     44 H14         11.8170     2.4150    53.4490 hc         1 MKG       0.060450
     45 H15         11.1480     1.4420    55.8090 hc         1 MKG       0.071700
     46 H16          9.2770     2.3620    54.7750 ha         1 MKG       0.114000
     47 H17          7.5540     4.1350    54.6120 ha         1 MKG       0.120000
     48 H18          7.8410     6.2790    55.8620 ha         1 MKG       0.136000
     49 H19         11.5830     4.8790    57.4470 ha         1 MKG       0.143000
     50 H20         11.2060     2.2100    58.3370 h1         1 MKG       0.051200
     51 H21         12.3100     0.9700    57.7250 h1         1 MKG       0.051200
     52 H22         15.4970     0.5830    54.1620 h1         1 MKG       0.045950
     53 H23         15.6510     2.2650    54.6870 h1         1 MKG       0.045950
     54 H24         18.0020     1.6700    50.5070 hc         1 MKG       0.045033
     55 H25         17.8010    -0.0580    50.1650 hc         1 MKG       0.045033
     56 H26         16.6850     1.1230    49.4450 hc         1 MKG       0.045033
     57 H27         14.3680    -0.0160    51.3280 hn         1 MKG       0.318500
     58 H28         13.4330     2.8170    59.0770 hn         1 MKG       0.333500
     59 C8          15.5740    -1.6590    51.4770 c          1 MKG       0.610700
@<TRIPOS>BOND
     1     1     4 1   
     2     1    13 1   
     3     1    23 1   
     4     2     3 1   
     5     2    14 1   
     6     2    15 1   
     7     2    30 1   
     8     3    23 1   
     9     3    32 1   
    10     3    33 1   
    11     4     5 1   
    12     4    34 1   
    13     4    35 1   
    14     5    24 1   
    15     5    27 1   
    16     5    36 1   
    17     6     8 ar  
    18     6    12 ar  
    19     6    59 1   
    20     7    28 1   
    21     7    29 2   
    22     7    30 1   
    23     8     9 ar  
    24     8    37 1   
    25     9    10 ar  
    26     9    38 1   
    27    10    11 ar  
    28    10    25 1   
    29    11    12 ar  
    30    11    39 1   
    31    12    40 1   
    32    13    14 1   
    33    13    41 1   
    34    13    42 1   
    35    14    43 1   
    36    14    44 1   
    37    15    16 1   
    38    15    22 1   
    39    15    45 1   
    40    16    17 ar  
    41    16    21 ar  
    42    17    18 ar  
    43    17    46 1   
    44    18    19 ar  
    45    18    47 1   
    46    19    20 ar  
    47    19    48 1   
    48    20    21 ar  
    49    20    26 1   
    50    21    49 1   
    51    22    28 1   
    52    22    50 1   
    53    22    51 1   
    54    23    52 1   
    55    23    53 1   
    56    24    54 1   
    57    24    55 1   
    58    24    56 1   
    59    27    57 1   
    60    27    59 1   
    61    28    58 1   
    62    31    59 2   
@<TRIPOS>SUBSTRUCTURE
     1 MKG         1 TEMP              0 ****  ****    0 ROOT
