@<TRIPOS>MOLECULE
MKH
   60    63     1     0     0
SMALL
abcg2


@<TRIPOS>ATOM
      1 O1           7.8510    -1.2440    -1.8920 o          1 MKH      -0.523000
      2 C2           6.7880    -1.0450    -1.3320 c          1 MKH       0.589200
      3 N3           6.6130     0.0740    -0.5300 ns         1 MKH      -0.469500
      4 C4           5.4890     0.4520     0.1560 c          1 MKH       0.615000
      5 N5           4.4260    -0.4180     0.0450 n          1 MKH      -0.313000
      6 C6           4.5120    -1.5360    -0.7310 cc         1 MKH       0.001600
      7 C7           5.6180    -1.8850    -1.4090 cd         1 MKH      -0.378200
      8 O8           5.4380     1.4720     0.8110 o          1 MKH      -0.552000
      9 C9           3.1730    -0.0900     0.7120 c3         1 MKH       0.111000
     10 C10          2.2920     0.8150    -0.1390 c3         1 MKH      -0.068400
     11 C11          0.9700     1.0420     0.5760 c3         1 MKH      -0.316400
     12 S12         -0.1420     2.0510    -0.3920 s6         1 MKH       1.191100
     13 N13         -1.5650     1.9840     0.4690 n3         1 MKH      -0.775500
     14 C14         -2.0450     3.2110     1.1300 c5         1 MKH       0.197800
     15 C15         -3.2740     3.5820     0.3220 c5         1 MKH      -0.100400
     16 C16         -3.9070     2.2220     0.0440 c5         1 MKH      -0.085400
     17 C17         -2.7230     1.2390    -0.0750 c5         1 MKH       0.194500
     18 O18          0.3710     3.4160    -0.3720 o          1 MKH      -0.538500
     19 O19         -0.3270     1.4160    -1.6910 o          1 MKH      -0.538500
     20 C20         -2.9430    -0.0660     0.7330 c3         1 MKH       0.288600
     21 O21         -3.0560     0.2680     2.0910 oh         1 MKH      -0.649000
     22 C22         -4.2410    -0.7560     0.3340 ca         1 MKH      -0.101800
     23 C23         -4.9560    -1.4890     1.2800 ca         1 MKH      -0.094750
     24 C24         -6.1110    -2.1720     0.9240 ca         1 MKH      -0.113500
     25 C25         -6.5740    -2.1370    -0.3830 ca         1 MKH      -0.109500
     26 C26         -5.8680    -1.4130    -1.3330 ca         1 MKH      -0.113500
     27 C27         -4.7130    -0.7310    -0.9770 ca         1 MKH      -0.094750
     28 C28         -1.8040    -1.0670     0.5200 ca         1 MKH      -0.101800
     29 C29         -1.2020    -1.6980     1.6070 ca         1 MKH      -0.094750
     30 C30         -0.1510    -2.5890     1.4240 ca         1 MKH      -0.113500
     31 C31          0.3120    -2.8730     0.1480 ca         1 MKH      -0.109500
     32 C32         -0.3010    -2.2750    -0.9450 ca         1 MKH      -0.113500
     33 C33         -1.3520    -1.3890    -0.7600 ca         1 MKH      -0.094750
     34 HN3          7.4030     0.7010    -0.4440 hn         1 MKH       0.343500
     35 H6           3.6190    -2.1440    -0.7630 h4         1 MKH       0.204000
     36 H7           5.6390    -2.7840    -2.0050 ha         1 MKH       0.224000
     37 H9           2.6600    -1.0300     0.9180 h1         1 MKH       0.068200
     38 H9A          3.3940     0.3690     1.6730 h1         1 MKH       0.068200
     39 H10          2.7990     1.7630    -0.3230 hc         1 MKH       0.072700
     40 H10A         2.1120     0.3390    -1.1050 hc         1 MKH       0.072700
     41 H11          0.4580     0.0990     0.7650 h1         1 MKH       0.103200
     42 H11A         1.0980     1.5530     1.5320 h1         1 MKH       0.103200
     43 H14         -2.3110     2.9770     2.1630 h1         1 MKH       0.071200
     44 H14A        -1.2800     3.9810     1.1570 h1         1 MKH       0.071200
     45 H15         -3.9430     4.2530     0.8610 hc         1 MKH       0.060700
     46 H15A        -2.9740     4.0740    -0.6060 hc         1 MKH       0.060700
     47 H16         -4.5590     1.9440     0.8740 hc         1 MKH       0.066200
     48 H16A        -4.5120     2.2180    -0.8600 hc         1 MKH       0.066200
     49 H17         -2.5430     1.0070    -1.1230 h1         1 MKH       0.083700
     50 HO21        -2.2160     0.6490     2.3770 ho         1 MKH       0.457000
     51 H23         -4.6140    -1.5390     2.3040 ha         1 MKH       0.122000
     52 H24         -6.6490    -2.7350     1.6750 ha         1 MKH       0.116000
     53 H25         -7.4770    -2.6660    -0.6590 ha         1 MKH       0.112500
     54 H26         -6.2150    -1.3730    -2.3570 ha         1 MKH       0.116000
     55 H27         -4.1960    -0.1710    -1.7450 ha         1 MKH       0.122000
     56 H29         -1.5420    -1.4990     2.6150 ha         1 MKH       0.122000
     57 H30          0.3070    -3.0570     2.2860 ha         1 MKH       0.116000
     58 H31          1.1340    -3.5640     0.0070 ha         1 MKH       0.112500
     59 H32          0.0390    -2.4950    -1.9480 ha         1 MKH       0.116000
     60 H33         -1.8090    -0.9480    -1.6350 ha         1 MKH       0.122000
@<TRIPOS>BOND
     1     1     2 2   
     2     2     3 1   
     3     2     7 1   
     4     3     4 1   
     5     3    34 1   
     6     4     5 1   
     7     4     8 2   
     8     5     6 1   
     9     5     9 1   
    10     6     7 2   
    11     6    35 1   
    12     7    36 1   
    13     9    10 1   
    14     9    37 1   
    15     9    38 1   
    16    10    11 1   
    17    10    39 1   
    18    10    40 1   
    19    11    12 1   
    20    11    41 1   
    21    11    42 1   
    22    12    13 1   
    23    12    18 2   
    24    12    19 2   
    25    13    14 1   
    26    13    17 1   
    27    14    15 1   
    28    14    43 1   
    29    14    44 1   
    30    15    16 1   
    31    15    45 1   
    32    15    46 1   
    33    16    17 1   
    34    16    47 1   
    35    16    48 1   
    36    17    20 1   
    37    17    49 1   
    38    20    21 1   
    39    20    22 1   
    40    20    28 1   
    41    21    50 1   
    42    22    23 ar  
    43    22    27 ar  
    44    23    24 ar  
    45    23    51 1   
    46    24    25 ar  
    47    24    52 1   
    48    25    26 ar  
    49    25    53 1   
    50    26    27 ar  
    51    26    54 1   
    52    27    55 1   
    53    28    29 ar  
    54    28    33 ar  
    55    29    30 ar  
    56    29    56 1   
    57    30    31 ar  
    58    30    57 1   
    59    31    32 ar  
    60    31    58 1   
    61    32    33 ar  
    62    32    59 1   
    63    33    60 1   
@<TRIPOS>SUBSTRUCTURE
     1 MKH         1 TEMP              0 ****  ****    0 ROOT
