@<TRIPOS>MOLECULE
MKH
   60    63     1     0     0
SMALL
No Charge or Current Charge


@<TRIPOS>ATOM
      1 O1           7.7630    -1.7360    -1.3090 o          1 MKH      -0.523000
      2 C2           6.6960    -1.4040    -0.8250 c          1 MKH       0.589200
      3 N3           6.5950    -0.4420     0.1280 ns         1 MKH      -0.469500
      4 C4           5.4730     0.0190     0.7460 c          1 MKH       0.615000
      5 N5           4.2550    -0.5790     0.3480 n          1 MKH      -0.313000
      6 C6           4.2270    -1.5790    -0.6240 cc         1 MKH       0.001600
      7 C7           5.4060    -1.9870    -1.2010 cd         1 MKH      -0.378200
      8 O8           5.5490     0.9010     1.5860 o          1 MKH      -0.552000
      9 C9           2.9950    -0.1330     0.9870 c3         1 MKH       0.111000
     10 C10          2.2250     0.8940     0.1330 c3         1 MKH      -0.068400
     11 C11          0.8700     1.2910     0.7680 c3         1 MKH      -0.316400
     12 S12         -0.1030     2.4090    -0.2530 s6         1 MKH       1.191100
     13 N13         -1.6890     2.3630     0.4400 n3         1 MKH      -0.775500
     14 C14         -2.3940     3.6600     0.6810 c5         1 MKH       0.197800
     15 C15         -3.6920     3.5300    -0.1350 c5         1 MKH      -0.100400
     16 C16         -4.0600     2.0840     0.2290 c5         1 MKH      -0.085400
     17 C17         -2.7120     1.3610    -0.0740 c5         1 MKH       0.194500
     18 O18          0.4190     3.7620    -0.0370 o          1 MKH      -0.538500
     19 O19         -0.2200     1.9000    -1.6220 o          1 MKH      -0.538500
     20 C20         -2.6230    -0.0770     0.5880 c3         1 MKH       0.288600
     21 O21         -2.2670     0.2390     1.9390 oh         1 MKH      -0.649000
     22 C22         -3.9660    -0.8430     0.5390 ca         1 MKH      -0.101800
     23 C23         -4.5730    -1.3760     1.7030 ca         1 MKH      -0.094750
     24 C24         -5.7890    -2.0770     1.6200 ca         1 MKH      -0.113500
     25 C25         -6.4130    -2.2650     0.3780 ca         1 MKH      -0.109500
     26 C26         -5.8170    -1.7550    -0.7860 ca         1 MKH      -0.113500
     27 C27         -4.6020    -1.0540    -0.7060 ca         1 MKH      -0.094750
     28 C28         -1.5500    -1.0330     0.0050 ca         1 MKH      -0.101800
     29 C29         -0.9220    -1.9870     0.8440 ca         1 MKH      -0.094750
     30 C30          0.0510    -2.8680     0.3410 ca         1 MKH      -0.113500
     31 C31          0.4010    -2.8290    -1.0150 ca         1 MKH      -0.109500
     32 C32         -0.2320    -1.9150    -1.8690 ca         1 MKH      -0.113500
     33 C33         -1.2050    -1.0330    -1.3690 ca         1 MKH      -0.094750
     34 HN3          7.4600    -0.0130     0.4140 hn         1 MKH       0.343500
     35 H6           3.2320    -1.9570    -0.8450 h4         1 MKH       0.204000
     36 H7           5.4490    -2.7590    -1.9610 ha         1 MKH       0.224000
     37 H9           2.3560    -1.0120     1.1470 h1         1 MKH       0.068200
     38 H9A          3.1980     0.2940     1.9780 h1         1 MKH       0.068200
     39 H10          2.8480     1.7870    -0.0080 hc         1 MKH       0.072700
     40 H10A         2.0500     0.4630    -0.8610 hc         1 MKH       0.072700
     41 H11          0.2610     0.4040     0.9280 h1         1 MKH       0.103200
     42 H11A         1.0130     1.8010     1.7260 h1         1 MKH       0.103200
     43 H14         -2.6190     3.7810     1.7500 h1         1 MKH       0.071200
     44 H14A        -1.8280     4.5490     0.3710 h1         1 MKH       0.071200
     45 H15         -4.4540     4.2550     0.1710 hc         1 MKH       0.060700
     46 H15A        -3.5150     3.6570    -1.2090 hc         1 MKH       0.060700
     47 H16         -4.3570     1.9910     1.2810 hc         1 MKH       0.066200
     48 H16A        -4.8890     1.7080    -0.3800 hc         1 MKH       0.066200
     49 H17         -2.6450     1.2620    -1.1640 h1         1 MKH       0.083700
     50 HO21        -1.9120     1.1570     1.8390 ho         1 MKH       0.457000
     51 H23         -4.1100    -1.2530     2.6790 ha         1 MKH       0.122000
     52 H24         -6.2450    -2.4770     2.5230 ha         1 MKH       0.116000
     53 H25         -7.3530    -2.8090     0.3160 ha         1 MKH       0.112500
     54 H26         -6.2950    -1.9050    -1.7510 ha         1 MKH       0.116000
     55 H27         -4.1550    -0.6730    -1.6220 ha         1 MKH       0.122000
     56 H29         -1.1840    -2.0480     1.8980 ha         1 MKH       0.122000
     57 H30          0.5270    -3.5850     1.0050 ha         1 MKH       0.116000
     58 H31          1.1490    -3.5150    -1.4070 ha         1 MKH       0.112500
     59 H32          0.0260    -1.8930    -2.9260 ha         1 MKH       0.116000
     60 H33         -1.6850    -0.3570    -2.0700 ha         1 MKH       0.122000
@<TRIPOS>BOND
     1     1     2 2   
     2     2     3 1   
     3     2     7 1   
     4     3     4 1   
     5     3    34 1   
     6     4     5 1   
     7     4     8 2   
     8     5     6 1   
     9     5     9 1   
    10     6     7 2   
    11     6    35 1   
    12     7    36 1   
    13     9    10 1   
    14     9    37 1   
    15     9    38 1   
    16    10    11 1   
    17    10    39 1   
    18    10    40 1   
    19    11    12 1   
    20    11    41 1   
    21    11    42 1   
    22    12    13 1   
    23    12    18 2   
    24    12    19 2   
    25    13    14 1   
    26    13    17 1   
    27    14    15 1   
    28    14    43 1   
    29    14    44 1   
    30    15    16 1   
    31    15    45 1   
    32    15    46 1   
    33    16    17 1   
    34    16    47 1   
    35    16    48 1   
    36    17    20 1   
    37    17    49 1   
    38    20    21 1   
    39    20    22 1   
    40    20    28 1   
    41    21    50 1   
    42    22    23 ar  
    43    22    27 ar  
    44    23    24 ar  
    45    23    51 1   
    46    24    25 ar  
    47    24    52 1   
    48    25    26 ar  
    49    25    53 1   
    50    26    27 ar  
    51    26    54 1   
    52    27    55 1   
    53    28    29 ar  
    54    28    33 ar  
    55    29    30 ar  
    56    29    56 1   
    57    30    31 ar  
    58    30    57 1   
    59    31    32 ar  
    60    31    58 1   
    61    32    33 ar  
    62    32    59 1   
    63    33    60 1   
@<TRIPOS>SUBSTRUCTURE
     1 MKH         1 TEMP              0 ****  ****    0 ROOT
