@<TRIPOS>MOLECULE
MKK
   67    70     1     0     0
SMALL
No Charge or Current Charge


@<TRIPOS>ATOM
      1 C1          -1.8940     4.5300     0.8510 ca         1 MKK      -0.058300
      2 C2          -2.1670     3.1540     0.7360 ca         1 MKK      -0.149000
      3 C3          -1.8200     2.4250    -0.4240 ca         1 MKK       0.297000
      4 C4          -1.1740     3.1290    -1.4840 ca         1 MKK       0.141000
      5 C5          -0.9030     4.5030    -1.3690 ca         1 MKK      -0.124000
      6 C6          -1.2630     5.2030    -0.2080 ca         1 MKK      -0.115000
      7 N4          -2.1220     1.0240    -0.4730 nh         1 MKK      -0.513500
      8 N1          -2.1620     0.2990    -1.6060 n2         1 MKK      -0.314400
      9 C24         -2.3830    -0.9580    -1.4140 ce         1 MKK       0.206300
     10 C13         -2.2510    -1.3090     0.0830 c5         1 MKK      -0.046000
     11 C14         -2.4220     0.1460     0.6920 c5         1 MKK       0.192800
     12 C17         -3.4860    -2.0950     0.5980 ca         1 MKK      -0.064300
     13 C19         -4.7830    -1.7130     0.1760 ca         1 MKK      -0.098500
     14 C20         -5.9260    -2.4050     0.6120 ca         1 MKK      -0.108500
     15 C21         -5.7970    -3.5010     1.4760 ca         1 MKK      -0.104000
     16 C22         -4.5230    -3.9020     1.9010 ca         1 MKK      -0.108500
     17 C23         -3.3790    -3.2100     1.4660 ca         1 MKK      -0.098500
     18 C29         -1.9820    -2.0470    -2.3890 c          1 MKK       0.519800
     19 C9          -1.0620    -1.6610    -3.5560 c3         1 MKK      -0.185100
     20 O39         -2.2990    -3.2220    -2.2330 o          1 MKK      -0.515100
     21 F40         -0.7780     2.5070    -2.6210 f          1 MKK      -0.163000
     22 C10         -2.2890     5.2840     2.1120 c3         1 MKK      -0.046800
     23 C7          -0.8640    -1.9370     0.4740 c3         1 MKK      -0.064400
     24 C8           0.4060    -1.1520     0.0500 c3         1 MKK      -0.082400
     25 C11          1.7150    -1.8400     0.4950 c3         1 MKK       0.168800
     26 N2           2.9510    -1.2270    -0.0490 n3         1 MKK      -0.714600
     27 C12          3.1690     0.1910     0.3820 c6         1 MKK       0.143300
     28 C15          4.1600    -2.0550     0.2430 c6         1 MKK       0.143300
     29 C16          5.4460    -1.4560    -0.3900 c6         1 MKK       0.097500
     30 C18          4.4540     0.8020    -0.2450 c6         1 MKK       0.097500
     31 N3           5.6510    -0.0440     0.0340 n          1 MKK      -0.415800
     32 C25          6.7230     0.3450     0.8700 c          1 MKK       0.608100
     33 C26          6.8690     1.8160     1.2630 c3         1 MKK      -0.176100
     34 O1           7.5560    -0.4710     1.2460 o          1 MKK      -0.609100
     35 H2          -2.6650     2.6530     1.5600 ha         1 MKK       0.117000
     36 H5          -0.4080     5.0240    -2.1850 ha         1 MKK       0.132000
     37 H6          -1.0490     6.2670    -0.1310 ha         1 MKK       0.120000
     38 H141        -1.7320     0.3190     1.5290 h1         1 MKK       0.064200
     39 H142        -3.4390     0.3370     1.0590 h1         1 MKK       0.064200
     40 H19         -4.9150    -0.8660    -0.4940 ha         1 MKK       0.113000
     41 H20         -6.9120    -2.0910     0.2770 ha         1 MKK       0.113500
     42 H21         -6.6810    -4.0380     1.8140 ha         1 MKK       0.114000
     43 H22         -4.4180    -4.7540     2.5690 ha         1 MKK       0.113500
     44 H23         -2.4140    -3.5620     1.8180 ha         1 MKK       0.113000
     45 H91         -0.2450    -1.0250    -3.2020 hc         1 MKK       0.067033
     46 H92         -0.6950    -2.5320    -4.1110 hc         1 MKK       0.067033
     47 H93         -1.6120    -0.9780    -4.2130 hc         1 MKK       0.067033
     48 H101        -3.3300     5.6210     2.0550 hc         1 MKK       0.045367
     49 H102        -2.1890     4.6510     3.0020 hc         1 MKK       0.045367
     50 H103        -1.6590     6.1680     2.2650 hc         1 MKK       0.045367
     51 H71         -0.8150    -2.0400     1.5650 hc         1 MKK       0.055200
     52 H72         -0.7920    -2.9540     0.0690 hc         1 MKK       0.055200
     53 H81          0.4290    -1.0390    -1.0370 hc         1 MKK       0.052700
     54 H82          0.3650    -0.1450     0.4770 hc         1 MKK       0.052700
     55 H111         1.7530    -1.8500     1.5940 h1         1 MKK       0.031200
     56 H112         1.6660    -2.8880     0.1680 h1         1 MKK       0.031200
     57 H121         2.3200     0.8240     0.0880 h1         1 MKK       0.040200
     58 H122         3.2500     0.2450     1.4770 h1         1 MKK       0.040200
     59 H151         4.3090    -2.1360     1.3300 h1         1 MKK       0.040200
     60 H152         4.0250    -3.0760    -0.1410 h1         1 MKK       0.040200
     61 H161         6.3080    -2.0820    -0.1210 h1         1 MKK       0.061200
     62 H162         5.3540    -1.4880    -1.4850 h1         1 MKK       0.061200
     63 H181         4.3190     0.8700    -1.3330 h1         1 MKK       0.061200
     64 H182         4.5770     1.8270     0.1240 h1         1 MKK       0.061200
     65 H261         5.9980     2.1140     1.8580 hc         1 MKK       0.059033
     66 H262         7.7980     2.0140     1.8090 hc         1 MKK       0.059033
     67 H263         6.7830     2.4440     0.3690 hc         1 MKK       0.059033
@<TRIPOS>BOND
     1     1     2 ar  
     2     1     6 ar  
     3     1    22 1   
     4     2     3 ar  
     5     2    35 1   
     6     3     4 ar  
     7     3     7 1   
     8     4     5 ar  
     9     4    21 1   
    10     5     6 ar  
    11     5    36 1   
    12     6    37 1   
    13     7     8 1   
    14     7    11 1   
    15     8     9 2   
    16     9    10 1   
    17     9    18 1   
    18    10    11 1   
    19    10    12 1   
    20    10    23 1   
    21    11    38 1   
    22    11    39 1   
    23    12    13 ar  
    24    12    17 ar  
    25    13    14 ar  
    26    13    40 1   
    27    14    15 ar  
    28    14    41 1   
    29    15    16 ar  
    30    15    42 1   
    31    16    17 ar  
    32    16    43 1   
    33    17    44 1   
    34    18    19 1   
    35    18    20 2   
    36    19    45 1   
    37    19    46 1   
    38    19    47 1   
    39    22    48 1   
    40    22    49 1   
    41    22    50 1   
    42    23    24 1   
    43    23    51 1   
    44    23    52 1   
    45    24    25 1   
    46    24    53 1   
    47    24    54 1   
    48    25    26 1   
    49    25    55 1   
    50    25    56 1   
    51    26    27 1   
    52    26    28 1   
    53    27    30 1   
    54    27    57 1   
    55    27    58 1   
    56    28    29 1   
    57    28    59 1   
    58    28    60 1   
    59    29    31 1   
    60    29    61 1   
    61    29    62 1   
    62    30    31 1   
    63    30    63 1   
    64    30    64 1   
    65    31    32 1   
    66    32    33 1   
    67    32    34 2   
    68    33    65 1   
    69    33    66 1   
    70    33    67 1   
@<TRIPOS>SUBSTRUCTURE
     1 MKK         1 TEMP              0 ****  ****    0 ROOT
