@<TRIPOS>MOLECULE
MKK
   67    70     1     0     0
SMALL
bcc


@<TRIPOS>ATOM
      1 C1          -2.1290     4.5080     0.8020 ca         1 MKK      -0.058300
      2 C2          -2.1950     3.1230     0.7090 ca         1 MKK      -0.167000
      3 C3          -1.8210     2.4330    -0.4470 ca         1 MKK       0.158600
      4 C4          -1.3550     3.1940    -1.5230 ca         1 MKK       0.105900
      5 C5          -1.2910     4.5690    -1.4550 ca         1 MKK      -0.142000
      6 C6          -1.6750     5.2290    -0.2970 ca         1 MKK      -0.133000
      7 N4          -1.8850     1.0500    -0.4630 nh         1 MKK      -0.375100
      8 N1          -1.9080     0.3480    -1.5820 n2         1 MKK      -0.314400
      9 C24         -1.9890    -0.9070    -1.3170 ce         1 MKK       0.206300
     10 C13         -2.0030    -1.2170     0.1670 c5         1 MKK      -0.046000
     11 C14         -2.1070     0.2260     0.7240 c5         1 MKK       0.192800
     12 C17         -3.2310    -2.0310     0.5450 ca         1 MKK      -0.064300
     13 C19         -4.4770    -1.6460     0.0490 ca         1 MKK      -0.116500
     14 C20         -5.6280    -2.3430     0.3780 ca         1 MKK      -0.126500
     15 C21         -5.5590    -3.4460     1.2200 ca         1 MKK      -0.122000
     16 C22         -4.3280    -3.8350     1.7260 ca         1 MKK      -0.126500
     17 C23         -3.1750    -3.1340     1.3900 ca         1 MKK      -0.116500
     18 C29         -2.0040    -1.8970    -2.3930 c          1 MKK       0.519800
     19 C9          -2.0470    -1.3930    -3.8100 c3         1 MKK      -0.185100
     20 O39         -1.9980    -3.0840    -2.1240 o          1 MKK      -0.515100
     21 F40         -0.9340     2.5950    -2.6470 f          1 MKK      -0.127900
     22 C10         -2.5710     5.2070     2.0550 c3         1 MKK      -0.046800
     23 C7          -0.6830    -1.8740     0.6030 c3         1 MKK      -0.064400
     24 C8           0.5720    -1.1580     0.1140 c3         1 MKK      -0.082400
     25 C11          1.8190    -1.7930     0.7150 c3         1 MKK       0.168800
     26 N2           3.0570    -1.2840     0.1560 n3         1 MKK      -0.714600
     27 C12          3.3070     0.1010     0.5090 c6         1 MKK       0.143300
     28 C15          4.1860    -2.1100     0.5450 c6         1 MKK       0.143300
     29 C16          5.4660    -1.6320    -0.1170 c6         1 MKK       0.097500
     30 C18          4.5760     0.6060    -0.1570 c6         1 MKK       0.097500
     31 N3           5.7010    -0.2350     0.1960 n          1 MKK      -0.482800
     32 C25          6.8170     0.1700     0.8400 c          1 MKK       0.675100
     33 C26          6.9350     1.6420     1.1630 c3         1 MKK      -0.176100
     34 O1           7.7080    -0.6120     1.1530 o          1 MKK      -0.609100
     35 H2          -2.5560     2.5670     1.5650 ha         1 MKK       0.135000
     36 H5          -0.9220     5.1190    -2.3110 ha         1 MKK       0.150000
     37 H6          -1.6110     6.3090    -0.2550 ha         1 MKK       0.138000
     38 H141        -1.3560     0.4350     1.4880 h1         1 MKK       0.064200
     39 H142        -3.0900     0.4360     1.1520 h1         1 MKK       0.064200
     40 H19         -4.5560    -0.7880    -0.6100 ha         1 MKK       0.131000
     41 H20         -6.5820    -2.0260    -0.0250 ha         1 MKK       0.131500
     42 H21         -6.4550    -3.9950     1.4780 ha         1 MKK       0.132000
     43 H22         -4.2580    -4.6910     2.3850 ha         1 MKK       0.131500
     44 H23         -2.2320    -3.4700     1.8000 ha         1 MKK       0.131000
     45 H91         -1.3340    -0.5870    -3.9750 hc         1 MKK       0.067033
     46 H92         -1.8430    -2.2050    -4.5040 hc         1 MKK       0.067033
     47 H93         -3.0380    -0.9910    -4.0270 hc         1 MKK       0.067033
     48 H101        -3.5860     5.5930     1.9490 hc         1 MKK       0.045367
     49 H102        -2.5660     4.5340     2.9120 hc         1 MKK       0.045367
     50 H103        -1.9270     6.0540     2.2880 hc         1 MKK       0.045367
     51 H71         -0.6680    -1.9120     1.6970 hc         1 MKK       0.055200
     52 H72         -0.6590    -2.9080     0.2530 hc         1 MKK       0.055200
     53 H81          0.6430    -1.2140    -0.9750 hc         1 MKK       0.052700
     54 H82          0.5260    -0.0970     0.3730 hc         1 MKK       0.052700
     55 H111         1.7910    -1.6830     1.8140 h1         1 MKK       0.031200
     56 H112         1.7860    -2.8690     0.5170 h1         1 MKK       0.031200
     57 H121         2.4780     0.7260     0.1750 h1         1 MKK       0.040200
     58 H122         3.3970     0.2330     1.6020 h1         1 MKK       0.040200
     59 H151         4.3290    -2.1190     1.6400 h1         1 MKK       0.040200
     60 H152         3.9960    -3.1410     0.2370 h1         1 MKK       0.040200
     61 H161         6.3080    -2.2310     0.2160 h1         1 MKK       0.061200
     62 H162         5.3790    -1.7430    -1.2030 h1         1 MKK       0.061200
     63 H181         4.4460     0.5900    -1.2440 h1         1 MKK       0.061200
     64 H182         4.7510     1.6380     0.1330 h1         1 MKK       0.061200
     65 H261         6.1580     1.9640     1.8570 hc         1 MKK       0.059033
     66 H262         7.9010     1.8250     1.6240 hc         1 MKK       0.059033
     67 H263         6.8550     2.2650     0.2720 hc         1 MKK       0.059033
@<TRIPOS>BOND
     1     1     2 ar  
     2     1     6 ar  
     3     1    22 1   
     4     2     3 ar  
     5     2    35 1   
     6     3     4 ar  
     7     3     7 1   
     8     4     5 ar  
     9     4    21 1   
    10     5     6 ar  
    11     5    36 1   
    12     6    37 1   
    13     7     8 1   
    14     7    11 1   
    15     8     9 2   
    16     9    10 1   
    17     9    18 1   
    18    10    11 1   
    19    10    12 1   
    20    10    23 1   
    21    11    38 1   
    22    11    39 1   
    23    12    13 ar  
    24    12    17 ar  
    25    13    14 ar  
    26    13    40 1   
    27    14    15 ar  
    28    14    41 1   
    29    15    16 ar  
    30    15    42 1   
    31    16    17 ar  
    32    16    43 1   
    33    17    44 1   
    34    18    19 1   
    35    18    20 2   
    36    19    45 1   
    37    19    46 1   
    38    19    47 1   
    39    22    48 1   
    40    22    49 1   
    41    22    50 1   
    42    23    24 1   
    43    23    51 1   
    44    23    52 1   
    45    24    25 1   
    46    24    53 1   
    47    24    54 1   
    48    25    26 1   
    49    25    55 1   
    50    25    56 1   
    51    26    27 1   
    52    26    28 1   
    53    27    30 1   
    54    27    57 1   
    55    27    58 1   
    56    28    29 1   
    57    28    59 1   
    58    28    60 1   
    59    29    31 1   
    60    29    61 1   
    61    29    62 1   
    62    30    31 1   
    63    30    63 1   
    64    30    64 1   
    65    31    32 1   
    66    32    33 1   
    67    32    34 2   
    68    33    65 1   
    69    33    66 1   
    70    33    67 1   
@<TRIPOS>SUBSTRUCTURE
     1 MKK         1 TEMP              0 ****  ****    0 ROOT
