@<TRIPOS>MOLECULE
MKM
   69    72     1     0     0
SMALL
No Charge or Current Charge


@<TRIPOS>ATOM
      1 N            6.6350     0.1300     0.2030 n3         1 MKM      -0.718600
      2 C1           1.7240     1.3690    -0.3420 c6         1 MKM      -0.072400
      3 C10         -2.1000     0.4570     0.1850 c6         1 MKM      -0.046700
      4 C11         -4.3280    -0.6640     0.5820 c5         1 MKM      -0.062700
      5 C12         -5.1520     0.5710     0.1720 c5         1 MKM      -0.153000
      6 C13         -4.3220     1.8190     0.6010 c6         1 MKM      -0.051400
      7 C14         -2.8920     1.8070    -0.0340 c6         1 MKM      -0.073400
      8 C15         -5.9060    -2.1110     0.3540 c5         1 MKM      -0.067400
      9 C16         -7.0770    -1.0950     0.5660 c5         1 MKM      -0.191400
     10 C17         -6.4720     0.2940     0.9800 c          1 MKM       0.579100
     11 C18         -0.8340     0.6460    -2.0920 c3         1 MKM      -0.079100
     12 C19         -5.4870     0.6660    -1.3580 c3         1 MKM      -0.078100
     13 C2           2.2850    -0.0280    -0.0050 c6         1 MKM       0.175300
     14 C20          4.4260    -1.2560    -0.0130 c3         1 MKM       0.167600
     15 C21          5.9250    -1.0540    -0.3890 c3         1 MKM       0.170800
     16 C22          6.5900     0.1360     1.6930 c3         1 MKM       0.173300
     17 C23          7.1010     1.4270     2.3660 c3         1 MKM      -0.088600
     18 C24          8.0140     0.3030    -0.3360 c3         1 MKM       0.173300
     19 C25          8.1050     0.5130    -1.8620 c3         1 MKM      -0.088600
     20 C3           1.4350    -1.1230    -0.6970 c6         1 MKM      -0.071200
     21 C4          -0.0610    -1.0030    -0.3800 c2         1 MKM      -0.103400
     22 C5          -0.6950     0.4010    -0.5480 c6         1 MKM       0.002200
     23 C6           0.2420     1.4890     0.0840 c6         1 MKM      -0.066400
     24 C7          -0.7630    -2.0910    -0.0110 c2         1 MKM      -0.222200
     25 C8          -2.2480    -2.0980     0.3080 c6         1 MKM      -0.036200
     26 C9          -2.9710    -0.8050    -0.1430 c6         1 MKM      -0.040700
     27 O1           3.6720    -0.0870    -0.4010 os         1 MKM      -0.444000
     28 H2           2.3160     2.1340     0.1770 hc         1 MKM       0.054700
     29 H3           1.8340     1.5710    -1.4160 hc         1 MKM       0.054700
     30 H4          -1.8940     0.4040     1.2640 hc         1 MKM       0.046700
     31 H5          -4.0790    -0.6050     1.6510 hc         1 MKM       0.047700
     32 H6          -4.8500     2.7440     0.3300 hc         1 MKM       0.050200
     33 H7          -4.2220     1.8320     1.6950 hc         1 MKM       0.050200
     34 H8          -2.3260     2.6410     0.4000 hc         1 MKM       0.042200
     35 H9          -2.9780     2.0420    -1.1000 hc         1 MKM       0.042200
     36 H10         -5.9210    -2.5710    -0.6410 hc         1 MKM       0.049200
     37 H11         -5.8620    -2.8990     1.1140 hc         1 MKM       0.049200
     38 H12         -7.5790    -0.9650    -0.3970 hc         1 MKM       0.071700
     39 H13         -7.8180    -1.4250     1.3020 hc         1 MKM       0.071700
     40 H14         -1.1730     1.6620    -2.3200 hc         1 MKM       0.035033
     41 H15          0.1180     0.5210    -2.6180 hc         1 MKM       0.035033
     42 H16         -1.5380    -0.0530    -2.5580 hc         1 MKM       0.035033
     43 H17         -5.9250    -0.2540    -1.7560 hc         1 MKM       0.040367
     44 H18         -6.1990     1.4780    -1.5500 hc         1 MKM       0.040367
     45 H19         -4.6050     0.8600    -1.9770 hc         1 MKM       0.040367
     46 H20          2.2300    -0.1700     1.0840 h1         1 MKM       0.032700
     47 H21          4.0580    -2.1450    -0.5400 h1         1 MKM       0.018200
     48 H22          4.3290    -1.4440     1.0640 h1         1 MKM       0.018200
     49 H23          5.9520    -0.9970    -1.4840 h1         1 MKM       0.038200
     50 H24          6.4610    -1.9720    -0.1130 h1         1 MKM       0.038200
     51 H25          5.5530     0.0110     2.0310 h1         1 MKM       0.024950
     52 H26          7.1590    -0.7160     2.0900 h1         1 MKM       0.024950
     53 H27          6.8710     1.4070     3.4370 hc         1 MKM       0.037033
     54 H28          8.1870     1.5320     2.2630 hc         1 MKM       0.037033
     55 H29          6.6160     2.3090     1.9290 hc         1 MKM       0.037033
     56 H30          8.4820     1.1860     0.1170 h1         1 MKM       0.024950
     57 H31          8.6350    -0.5610    -0.0630 h1         1 MKM       0.024950
     58 H32          7.8570    -0.4040    -2.4100 hc         1 MKM       0.037033
     59 H33          7.4270     1.3120    -2.1840 hc         1 MKM       0.037033
     60 H34          9.1260     0.7980    -2.1400 hc         1 MKM       0.037033
     61 H35          1.5850    -1.0670    -1.7830 hc         1 MKM       0.050700
     62 H36          1.7940    -2.1160    -0.3960 hc         1 MKM       0.050700
     63 H38          0.1960     1.4220     1.1800 hc         1 MKM       0.042200
     64 H39         -0.1130     2.4950    -0.1720 hc         1 MKM       0.042200
     65 H40         -0.2690    -3.0600     0.0780 ha         1 MKM       0.169000
     66 H42         -2.7250    -2.9650    -0.1680 hc         1 MKM       0.046200
     67 H43         -2.3640    -2.2410     1.3910 hc         1 MKM       0.046200
     68 H44         -3.1490    -0.8690    -1.2230 hc         1 MKM       0.056700
     69 O2          -6.8610     0.9550     1.9350 o          1 MKM      -0.513100
@<TRIPOS>BOND
     1     1    15 1   
     2     1    16 1   
     3     1    18 1   
     4     2    13 1   
     5     2    23 1   
     6     2    28 1   
     7     2    29 1   
     8     3     7 1   
     9     3    22 1   
    10     3    26 1   
    11     3    30 1   
    12     4     5 1   
    13     4     8 1   
    14     4    26 1   
    15     4    31 1   
    16     5     6 1   
    17     5    10 1   
    18     5    12 1   
    19     6     7 1   
    20     6    32 1   
    21     6    33 1   
    22     7    34 1   
    23     7    35 1   
    24     8     9 1   
    25     8    36 1   
    26     8    37 1   
    27     9    10 1   
    28     9    38 1   
    29     9    39 1   
    30    10    69 2   
    31    11    22 1   
    32    11    40 1   
    33    11    41 1   
    34    11    42 1   
    35    12    43 1   
    36    12    44 1   
    37    12    45 1   
    38    13    20 1   
    39    13    27 1   
    40    13    46 1   
    41    14    15 1   
    42    14    27 1   
    43    14    47 1   
    44    14    48 1   
    45    15    49 1   
    46    15    50 1   
    47    16    17 1   
    48    16    51 1   
    49    16    52 1   
    50    17    53 1   
    51    17    54 1   
    52    17    55 1   
    53    18    19 1   
    54    18    56 1   
    55    18    57 1   
    56    19    58 1   
    57    19    59 1   
    58    19    60 1   
    59    20    21 1   
    60    20    61 1   
    61    20    62 1   
    62    21    22 1   
    63    21    24 2   
    64    22    23 1   
    65    23    63 1   
    66    23    64 1   
    67    24    25 1   
    68    24    65 1   
    69    25    26 1   
    70    25    66 1   
    71    25    67 1   
    72    26    68 1   
@<TRIPOS>SUBSTRUCTURE
     1 MKM         1 TEMP              0 ****  ****    0 ROOT
