@<TRIPOS>MOLECULE
MKM
   69    72     1     0     0
SMALL
bcc


@<TRIPOS>ATOM
      1 N            6.4760    -0.0230     0.3430 n3         1 MKM      -0.718600
      2 C1           1.7310     1.2600    -0.2800 c6         1 MKM      -0.072400
      3 C10         -2.0690     0.4410     0.0960 c6         1 MKM      -0.046700
      4 C11         -4.2920    -0.6250     0.4430 c5         1 MKM      -0.062700
      5 C12         -5.0220     0.6310    -0.0350 c5         1 MKM      -0.153000
      6 C13         -4.2080     1.8530     0.3550 c6         1 MKM      -0.051400
      7 C14         -2.8010     1.7510    -0.2400 c6         1 MKM      -0.073400
      8 C15         -5.3420    -1.7330     0.3400 c5         1 MKM      -0.067400
      9 C16         -6.6140    -1.0310     0.8340 c5         1 MKM      -0.191400
     10 C17         -6.3640     0.4590     0.6440 c          1 MKM       0.579100
     11 C18         -0.7420     0.6110    -2.0800 c3         1 MKM      -0.079100
     12 C19         -5.3360     0.6180    -1.5430 c3         1 MKM      -0.078100
     13 C2           2.2510    -0.1230     0.0610 c6         1 MKM       0.152100
     14 C20          4.3200    -1.2590     0.2740 c3         1 MKM       0.144400
     15 C21          5.7710    -1.1910    -0.1530 c3         1 MKM       0.170800
     16 C22          6.9210    -0.2120     1.7150 c3         1 MKM       0.173300
     17 C23          7.1790     1.0940     2.4490 c3         1 MKM      -0.088600
     18 C24          7.5620     0.3720    -0.5400 c3         1 MKM       0.173300
     19 C25          7.0750     1.0800    -1.7940 c3         1 MKM      -0.088600
     20 C3           1.4030    -1.1790    -0.6490 c6         1 MKM      -0.071200
     21 C4          -0.0630    -1.0250    -0.3430 c2         1 MKM      -0.103400
     22 C5          -0.6680     0.3520    -0.5650 c6         1 MKM       0.002200
     23 C6           0.2600     1.3920     0.0970 c6         1 MKM      -0.066400
     24 C7          -0.7710    -2.0660     0.0940 c2         1 MKM      -0.172200
     25 C8          -2.2360    -2.0450     0.3730 c6         1 MKM      -0.036200
     26 C9          -2.9230    -0.8070    -0.1890 c6         1 MKM      -0.040700
     27 O1           3.6110    -0.1920    -0.3060 os         1 MKM      -0.397600
     28 H2           2.3100     2.0180     0.2530 hc         1 MKM       0.054700
     29 H3           1.8710     1.4510    -1.3490 hc         1 MKM       0.054700
     30 H4          -1.8980     0.4420     1.1830 hc         1 MKM       0.046700
     31 H5          -4.1120    -0.4750     1.5200 hc         1 MKM       0.047700
     32 H6          -4.6840     2.7760     0.0140 hc         1 MKM       0.050200
     33 H7          -4.1460     1.9130     1.4460 hc         1 MKM       0.050200
     34 H8          -2.2140     2.6000     0.1160 hc         1 MKM       0.042200
     35 H9          -2.8710     1.8730    -1.3230 hc         1 MKM       0.042200
     36 H10         -5.4550    -2.0810    -0.6900 hc         1 MKM       0.049200
     37 H11         -5.0910    -2.6040     0.9460 hc         1 MKM       0.049200
     38 H12         -7.5280    -1.3390     0.3230 hc         1 MKM       0.071700
     39 H13         -6.7790    -1.2120     1.9000 hc         1 MKM       0.071700
     40 H14         -0.9490     1.6590    -2.3010 hc         1 MKM       0.035033
     41 H15          0.1940     0.3600    -2.5780 hc         1 MKM       0.035033
     42 H16         -1.5220     0.0060    -2.5460 hc         1 MKM       0.035033
     43 H17         -5.9560    -0.2300    -1.8360 hc         1 MKM       0.040367
     44 H18         -5.8720     1.5270    -1.8200 hc         1 MKM       0.040367
     45 H19         -4.4310     0.5740    -2.1470 hc         1 MKM       0.040367
     46 H20          2.1520    -0.2750     1.1490 h1         1 MKM       0.032700
     47 H21          3.9240    -2.2320    -0.0440 h1         1 MKM       0.018200
     48 H22          4.2280    -1.2300     1.3700 h1         1 MKM       0.018200
     49 H23          5.7970    -1.1930    -1.2450 h1         1 MKM       0.038200
     50 H24          6.2620    -2.1290     0.1580 h1         1 MKM       0.038200
     51 H25          6.1400    -0.7500     2.2570 h1         1 MKM       0.024950
     52 H26          7.8160    -0.8560     1.7620 h1         1 MKM       0.024950
     53 H27          7.4360     0.8960     3.4900 hc         1 MKM       0.037033
     54 H28          8.0020     1.6660     2.0170 hc         1 MKM       0.037033
     55 H29          6.2880     1.7230     2.4330 hc         1 MKM       0.037033
     56 H30          8.2150     1.0580     0.0020 h1         1 MKM       0.024950
     57 H31          8.1940    -0.4890    -0.8150 h1         1 MKM       0.024950
     58 H32          6.4580     0.4380    -2.4240 hc         1 MKM       0.037033
     59 H33          6.4860     1.9590    -1.5330 hc         1 MKM       0.037033
     60 H34          7.9240     1.4060    -2.3970 hc         1 MKM       0.037033
     61 H35          1.5790    -1.0840    -1.7270 hc         1 MKM       0.050700
     62 H36          1.7210    -2.1870    -0.3700 hc         1 MKM       0.050700
     63 H38          0.1650     1.3000     1.1850 hc         1 MKM       0.042200
     64 H39         -0.0800     2.3990    -0.1550 hc         1 MKM       0.042200
     65 H40         -0.2590    -3.0110     0.2560 ha         1 MKM       0.119000
     66 H42         -2.6960    -2.9490    -0.0360 hc         1 MKM       0.046200
     67 H43         -2.4020    -2.1020     1.4570 hc         1 MKM       0.046200
     68 H44         -3.0320    -0.9350    -1.2730 hc         1 MKM       0.056700
     69 O2          -7.1140     1.3450     0.9790 o          1 MKM      -0.513100
@<TRIPOS>BOND
     1     1    15 1   
     2     1    16 1   
     3     1    18 1   
     4     2    13 1   
     5     2    23 1   
     6     2    28 1   
     7     2    29 1   
     8     3     7 1   
     9     3    22 1   
    10     3    26 1   
    11     3    30 1   
    12     4     5 1   
    13     4     8 1   
    14     4    26 1   
    15     4    31 1   
    16     5     6 1   
    17     5    10 1   
    18     5    12 1   
    19     6     7 1   
    20     6    32 1   
    21     6    33 1   
    22     7    34 1   
    23     7    35 1   
    24     8     9 1   
    25     8    36 1   
    26     8    37 1   
    27     9    10 1   
    28     9    38 1   
    29     9    39 1   
    30    10    69 2   
    31    11    22 1   
    32    11    40 1   
    33    11    41 1   
    34    11    42 1   
    35    12    43 1   
    36    12    44 1   
    37    12    45 1   
    38    13    20 1   
    39    13    27 1   
    40    13    46 1   
    41    14    15 1   
    42    14    27 1   
    43    14    47 1   
    44    14    48 1   
    45    15    49 1   
    46    15    50 1   
    47    16    17 1   
    48    16    51 1   
    49    16    52 1   
    50    17    53 1   
    51    17    54 1   
    52    17    55 1   
    53    18    19 1   
    54    18    56 1   
    55    18    57 1   
    56    19    58 1   
    57    19    59 1   
    58    19    60 1   
    59    20    21 1   
    60    20    61 1   
    61    20    62 1   
    62    21    22 1   
    63    21    24 2   
    64    22    23 1   
    65    23    63 1   
    66    23    64 1   
    67    24    25 1   
    68    24    65 1   
    69    25    26 1   
    70    25    66 1   
    71    25    67 1   
    72    26    68 1   
@<TRIPOS>SUBSTRUCTURE
     1 MKM         1 TEMP              0 ****  ****    0 ROOT
