@<TRIPOS>MOLECULE
MKN
   23    25     1     0     0
SMALL
No Charge or Current Charge


@<TRIPOS>ATOM
      1 N1          -6.2330   -11.6110    92.3530 na         1 MKN       0.002800
      2 C4         -15.9420   -12.2520    90.1960 cc         1 MKN      -0.245000
      3 C5         -12.1240   -11.8120    91.0340 cc         1 MKN      -0.130000
      4 C6         -11.6440   -10.5240    91.0750 cd         1 MKN      -0.133000
      5 C7         -10.2570   -10.4540    91.3850 cd         1 MKN      -0.105000
      6 C8          -9.6830   -11.6900    91.5790 cc         1 MKN      -0.239500
      7 C10         -7.7480   -13.1560    92.0920 cc         1 MKN      -0.219000
      8 C1         -15.3630   -13.4820    90.3910 cd         1 MKN      -0.127000
      9 C2         -13.9770   -13.4170    90.7000 cd         1 MKN      -0.134000
     10 C3         -13.4960   -12.1320    90.7420 cc         1 MKN      -0.127000
     11 S1         -14.7650   -10.9560    90.3940 ss         1 MKN       0.212000
     12 S2         -10.8560   -12.9900    91.3820 ss         1 MKN       0.223000
     13 C9          -8.2960   -11.8770    91.9010 cc         1 MKN       0.326500
     14 C11         -6.4280   -12.9970    92.3820 cd         1 MKN      -0.171000
     15 N2          -7.4050   -10.9140    92.0520 nd         1 MKN      -0.511800
     16 H1          -5.3540   -11.1230    92.5260 hn         1 MKN       0.372000
     17 H4         -12.2500    -9.6430    90.8920 ha         1 MKN       0.136000
     18 H5          -9.7120    -9.5170    91.4590 ha         1 MKN       0.147000
     19 H6          -8.2880   -14.0940    92.0190 ha         1 MKN       0.149000
     20 H7         -15.9120   -14.4160    90.3160 ha         1 MKN       0.134000
     21 H9         -13.3720   -14.3000    90.8830 ha         1 MKN       0.135000
     22 H12         -5.6420   -13.7140    92.5960 h4         1 MKN       0.155000
     23 H2         -16.9680   -12.0090    89.9520 h4         1 MKN       0.150000
@<TRIPOS>BOND
     1     1    14 1   
     2     1    15 1   
     3     1    16 1   
     4     2     8 2   
     5     2    11 1   
     6     2    23 1   
     7     3     4 2   
     8     3    10 1   
     9     3    12 1   
    10     4     5 1   
    11     4    17 1   
    12     5     6 2   
    13     5    18 1   
    14     6    12 1   
    15     6    13 1   
    16     7    13 1   
    17     7    14 2   
    18     7    19 1   
    19     8     9 1   
    20     8    20 1   
    21     9    10 2   
    22     9    21 1   
    23    10    11 1   
    24    13    15 2   
    25    14    22 1   
@<TRIPOS>SUBSTRUCTURE
     1 MKN         1 TEMP              0 ****  ****    0 ROOT
