@<TRIPOS>MOLECULE
MKN
   23    25     1     0     0
SMALL
abcg2


@<TRIPOS>ATOM
      1 N1          -6.3030   -11.6430    92.3590 na         1 MKN       0.002800
      2 C4         -15.8850   -12.2660    90.1580 cc         1 MKN      -0.245000
      3 C5         -12.1300   -11.7290    91.0230 cc         1 MKN      -0.130000
      4 C6         -11.6390   -10.4520    91.0890 cd         1 MKN      -0.133000
      5 C7         -10.2610   -10.3980    91.3980 cd         1 MKN      -0.105000
      6 C8          -9.7010   -11.6340    91.5680 cc         1 MKN      -0.239500
      7 C10         -7.7440   -13.2410    92.0510 cc         1 MKN      -0.219000
      8 C1         -15.3620   -13.4950    90.4220 cd         1 MKN      -0.127000
      9 C2         -13.9850   -13.4430    90.7560 cd         1 MKN      -0.134000
     10 C3         -13.4760   -12.1710    90.7410 cc         1 MKN      -0.127000
     11 S1         -14.7050   -11.0330    90.3090 ss         1 MKN       0.212000
     12 S2         -10.8770   -12.8750    91.3420 ss         1 MKN       0.223000
     13 C9          -8.3280   -11.9660    91.8930 cc         1 MKN       0.326500
     14 C11         -6.4300   -12.9790    92.3530 cd         1 MKN      -0.171000
     15 N2          -7.4310   -11.0070    92.0860 nd         1 MKN      -0.511800
     16 H1          -5.4670   -11.1150    92.5490 hn         1 MKN       0.372000
     17 H4         -12.2440    -9.5700    90.9260 ha         1 MKN       0.136000
     18 H5          -9.7030    -9.4780    91.4960 ha         1 MKN       0.147000
     19 H6          -8.2100   -14.2080    91.9570 ha         1 MKN       0.149000
     20 H7         -15.9370   -14.4080    90.3810 ha         1 MKN       0.134000
     21 H9         -13.4000   -14.3190    91.0010 ha         1 MKN       0.135000
     22 H12         -5.5990   -13.6330    92.5590 h4         1 MKN       0.155000
     23 H2         -16.8970   -12.0150    89.8840 h4         1 MKN       0.150000
@<TRIPOS>BOND
     1     1    14 1   
     2     1    15 1   
     3     1    16 1   
     4     2     8 2   
     5     2    11 1   
     6     2    23 1   
     7     3     4 2   
     8     3    10 1   
     9     3    12 1   
    10     4     5 1   
    11     4    17 1   
    12     5     6 2   
    13     5    18 1   
    14     6    12 1   
    15     6    13 1   
    16     7    13 1   
    17     7    14 2   
    18     7    19 1   
    19     8     9 1   
    20     8    20 1   
    21     9    10 2   
    22     9    21 1   
    23    10    11 1   
    24    13    15 2   
    25    14    22 1   
@<TRIPOS>SUBSTRUCTURE
     1 MKN         1 TEMP              0 ****  ****    0 ROOT
