@<TRIPOS>MOLECULE
MKP
   50    53     1     0     0
SMALL
No Charge or Current Charge


@<TRIPOS>ATOM
      1 C4          -1.4550    -0.3110    -0.0560 ca         1 MKP      -0.043000
      2 C5           1.4380     0.3380    -0.9650 ca         1 MKP      -0.073000
      3 C6           1.9640    -1.3570     0.7190 ca         1 MKP       0.347900
      4 C7          -7.8260     2.2280     0.5330 cc         1 MKP       0.171900
      5 C8          -0.4030    -1.2410    -0.2370 cp         1 MKP      -0.042000
      6 C10         -2.8140    -0.6960    -0.0970 ca         1 MKP      -0.162600
      7 C13          3.6220     0.0700     0.0590 ca         1 MKP       0.422900
      8 C15          4.8210     1.7550    -0.9850 c          1 MKP       0.603000
      9 C20          7.3840     1.1610     0.4570 c3         1 MKP      -0.103100
     10 C1          -3.1140    -2.0590    -0.3320 ca         1 MKP      -0.074000
     11 C11         -0.7320    -2.6020    -0.4870 ca         1 MKP      -0.029300
     12 C12          2.7710     0.7190    -0.8190 ca         1 MKP      -0.037400
     13 C14         -6.3670     0.5970     0.2110 cd         1 MKP       0.400900
     14 C16         -3.8890     0.3540     0.1130 c          1 MKP       0.631700
     15 C18          6.5000    -1.1690     0.4390 c3         1 MKP      -0.103100
     16 C19          5.8380     0.4550     2.2780 c3         1 MKP      -0.103100
     17 C2          -2.0830    -2.9920    -0.5250 ca         1 MKP      -0.122000
     18 C3          -6.4920     1.9760     0.4590 cd         1 MKP      -0.235000
     19 C9           1.0100    -0.7580    -0.1680 cp         1 MKP      -0.094000
     20 N22          3.2600    -0.9610     0.8420 nb         1 MKP      -0.671000
     21 N23         -7.5340    -0.0070     0.1310 nc         1 MKP      -0.436300
     22 N24          3.5280     1.7200    -1.4240 ns         1 MKP      -0.502600
     23 N25          4.9080     0.7040    -0.0320 n          1 MKP      -0.381300
     24 N26         -5.1900    -0.0920     0.0630 ns         1 MKP      -0.477400
     25 O28         -3.6020     1.5250     0.3140 o          1 MKP      -0.566100
     26 O29         -8.5000     1.0470     0.3390 os         1 MKP      -0.059700
     27 H1          -1.1980     0.7290     0.1320 ha         1 MKP       0.139000
     28 H2           0.7690     0.8450    -1.6570 ha         1 MKP       0.132000
     29 H3           1.6620    -2.1820     1.3630 h4         1 MKP       0.027100
     30 H4          -8.4000     3.1280     0.7050 h4         1 MKP       0.058100
     31 H5           0.7280    -4.0650     0.1920 hc         1 MKP       0.050700
     32 H6          -0.0740    -4.5070    -1.3190 hc         1 MKP       0.050700
     33 H7           1.1710    -3.2620    -1.3280 hc         1 MKP       0.050700
     34 H8           7.2130     2.2170     0.6960 hc         1 MKP       0.049589
     35 H9           8.2400     0.8270     1.0570 hc         1 MKP       0.049589
     36 H10          7.6770     1.0790    -0.5970 hc         1 MKP       0.049589
     37 H11         -4.1380    -2.4180    -0.3740 ha         1 MKP       0.118000
     38 H12          7.4220    -1.4600     0.9560 hc         1 MKP       0.049589
     39 H13          5.7200    -1.8700     0.7510 hc         1 MKP       0.049589
     40 H14          6.6610    -1.3000    -0.6380 hc         1 MKP       0.049589
     41 H15          5.5280     1.4800     2.5120 hc         1 MKP       0.049589
     42 H16          5.0480    -0.2230     2.6170 hc         1 MKP       0.049589
     43 H17          6.7330     0.2290     2.8710 hc         1 MKP       0.049589
     44 H18         -2.3410    -4.0320    -0.7130 ha         1 MKP       0.120000
     45 H19         -5.7090     2.7120     0.5710 ha         1 MKP       0.178000
     46 H20          3.1780     2.3700    -2.1210 hn         1 MKP       0.470000
     47 H21         -5.2760    -1.0810    -0.1100 hn         1 MKP       0.341500
     48 C17          0.3320    -3.6640    -0.7480 c3         1 MKP      -0.055800
     49 O27          5.6680     2.5410    -1.3690 o          1 MKP      -0.551000
     50 C21          6.1230     0.3030     0.7600 c3         1 MKP       0.163400
@<TRIPOS>BOND
     1     1     5 ar  
     2     1     6 ar  
     3     1    27 1   
     4     2    12 ar  
     5     2    19 ar  
     6     2    28 1   
     7     3    19 ar  
     8     3    20 ar  
     9     3    29 1   
    10     4    18 2   
    11     4    26 1   
    12     4    30 1   
    13     5    11 ar  
    14     5    19 1   
    15     6    10 ar  
    16     6    14 1   
    17     7    12 ar  
    18     7    20 ar  
    19     7    23 1   
    20     8    22 1   
    21     8    23 1   
    22     8    49 2   
    23     9    34 1   
    24     9    35 1   
    25     9    36 1   
    26     9    50 1   
    27    10    17 ar  
    28    10    37 1   
    29    11    17 ar  
    30    11    48 1   
    31    12    22 1   
    32    13    18 1   
    33    13    21 2   
    34    13    24 1   
    35    14    24 1   
    36    14    25 2   
    37    15    38 1   
    38    15    39 1   
    39    15    40 1   
    40    15    50 1   
    41    16    41 1   
    42    16    42 1   
    43    16    43 1   
    44    16    50 1   
    45    17    44 1   
    46    18    45 1   
    47    21    26 1   
    48    22    46 1   
    49    23    50 1   
    50    24    47 1   
    51    31    48 1   
    52    32    48 1   
    53    33    48 1   
@<TRIPOS>SUBSTRUCTURE
     1 MKP         1 TEMP              0 ****  ****    0 ROOT
