@<TRIPOS>MOLECULE
MKP
   50    53     1     0     0
SMALL
bcc


@<TRIPOS>ATOM
      1 C4          -1.3960    -0.3900     0.0750 ca         1 MKP      -0.061000
      2 C5           1.4130     0.2480    -1.0080 ca         1 MKP      -0.091000
      3 C6           1.9640    -1.3050     0.7380 ca         1 MKP       0.413200
      4 C7          -7.6310     2.2030     0.5930 cc         1 MKP       0.281600
      5 C8          -0.3660    -1.2910    -0.1680 cp         1 MKP      -0.042000
      6 C10         -2.7300    -0.7830     0.0480 ca         1 MKP      -0.162600
      7 C13          3.5790     0.0810     0.0150 ca         1 MKP       0.488200
      8 C15          4.7340     1.6700    -1.0850 c          1 MKP       0.812500
      9 C20          7.2280     1.1560     0.4080 c3         1 MKP      -0.103100
     10 C1          -3.0300    -2.1170    -0.2100 ca         1 MKP      -0.092000
     11 C11         -0.6700    -2.6350    -0.4390 ca         1 MKP      -0.029300
     12 C12          2.7140     0.6780    -0.9120 ca         1 MKP      -0.102700
     13 C14         -6.1270     0.7630     0.0100 cd         1 MKP       0.466200
     14 C16         -3.7660     0.2450     0.3420 c          1 MKP       0.698700
     15 C18          6.3240    -1.1450     0.4860 c3         1 MKP      -0.103100
     16 C19          5.6320     0.5730     2.2060 c3         1 MKP      -0.103100
     17 C2          -2.0080    -3.0200    -0.4470 ca         1 MKP      -0.140000
     18 C3          -6.3300     1.9190     0.8140 cd         1 MKP      -0.383600
     19 C9           1.0260    -0.7900    -0.1500 cp         1 MKP      -0.159300
     20 N22          3.2270    -0.8830     0.8290 nb         1 MKP      -0.671000
     21 N23         -7.2180     0.4180    -0.6190 nc         1 MKP      -0.436300
     22 N24          3.4440     1.6320    -1.5600 ns         1 MKP      -0.456100
     23 N25          4.8150     0.6930    -0.0980 n          1 MKP      -0.448300
     24 N26         -5.0010    -0.0070    -0.1790 ns         1 MKP      -0.544400
     25 O28         -3.5200     1.2420     0.9930 o          1 MKP      -0.566100
     26 O29         -8.1640     1.3250    -0.2510 os         1 MKP      -0.104100
     27 H1          -1.1510     0.6420     0.2940 ha         1 MKP       0.157000
     28 H2           0.7200     0.6820    -1.7170 ha         1 MKP       0.150000
     29 H3           1.6800    -2.0900     1.4280 h4         1 MKP       0.027100
     30 H4          -8.2790     2.9820     0.9640 h4         1 MKP       0.058100
     31 H5           0.8490    -4.0320     0.1810 hc         1 MKP       0.050700
     32 H6          -0.0300    -4.5080    -1.2610 hc         1 MKP       0.050700
     33 H7           1.1940    -3.2410    -1.3460 hc         1 MKP       0.050700
     34 H8           7.0900     2.2180     0.5950 hc         1 MKP       0.049589
     35 H9           8.0260     0.8060     1.0650 hc         1 MKP       0.049589
     36 H10          7.5680     1.0190    -0.6170 hc         1 MKP       0.049589
     37 H11         -4.0510    -2.4790    -0.2090 ha         1 MKP       0.136000
     38 H12          7.1980    -1.4250     1.0760 hc         1 MKP       0.049589
     39 H13          5.5100    -1.8110     0.7640 hc         1 MKP       0.049589
     40 H14          6.5650    -1.3080    -0.5650 hc         1 MKP       0.049589
     41 H15          5.3700     1.6200     2.3650 hc         1 MKP       0.049589
     42 H16          4.8030    -0.0460     2.5410 hc         1 MKP       0.049589
     43 H17          6.4950     0.3460     2.8340 hc         1 MKP       0.049589
     44 H18         -2.2580    -4.0540    -0.6530 ha         1 MKP       0.138000
     45 H19         -5.6380     2.4420     1.4460 ha         1 MKP       0.196000
     46 H20          3.1160     2.2430    -2.2910 hn         1 MKP       0.356500
     47 H21         -5.1160    -0.7900    -0.8050 hn         1 MKP       0.341500
     48 C17          0.3920    -3.6530    -0.7340 c3         1 MKP      -0.055800
     49 O27          5.5950     2.4280    -1.4840 o          1 MKP      -0.626500
     50 C21          5.9890     0.3260     0.7380 c3         1 MKP       0.163400
@<TRIPOS>BOND
     1     1     5 ar  
     2     1     6 ar  
     3     1    27 1   
     4     2    12 ar  
     5     2    19 ar  
     6     2    28 1   
     7     3    19 ar  
     8     3    20 ar  
     9     3    29 1   
    10     4    18 2   
    11     4    26 1   
    12     4    30 1   
    13     5    11 ar  
    14     5    19 1   
    15     6    10 ar  
    16     6    14 1   
    17     7    12 ar  
    18     7    20 ar  
    19     7    23 1   
    20     8    22 1   
    21     8    23 1   
    22     8    49 2   
    23     9    34 1   
    24     9    35 1   
    25     9    36 1   
    26     9    50 1   
    27    10    17 ar  
    28    10    37 1   
    29    11    17 ar  
    30    11    48 1   
    31    12    22 1   
    32    13    18 1   
    33    13    21 2   
    34    13    24 1   
    35    14    24 1   
    36    14    25 2   
    37    15    38 1   
    38    15    39 1   
    39    15    40 1   
    40    15    50 1   
    41    16    41 1   
    42    16    42 1   
    43    16    43 1   
    44    16    50 1   
    45    17    44 1   
    46    18    45 1   
    47    21    26 1   
    48    22    46 1   
    49    23    50 1   
    50    24    47 1   
    51    31    48 1   
    52    32    48 1   
    53    33    48 1   
@<TRIPOS>SUBSTRUCTURE
     1 MKP         1 TEMP              0 ****  ****    0 ROOT
