@<TRIPOS>MOLECULE
MKQ
   37    39     1     0     0
SMALL
No Charge or Current Charge


@<TRIPOS>ATOM
      1 O3          18.2390     3.8910    12.8200 o          1 MKQ      -0.528500
      2 C22         23.4290     7.6690    14.6630 ca         1 MKQ      -0.097000
      3 C20         24.8930     7.5950    12.7200 ca         1 MKQ      -0.102000
      4 C21         24.6930     7.8710    14.0820 ca         1 MKQ      -0.108750
      5 C17         22.3380     7.1860    13.8960 cp         1 MKQ      -0.045000
      6 C16         17.9720     8.1450    18.2780 ca         1 MKQ      -0.097000
      7 C13         18.5640    10.8830    18.0990 ca         1 MKQ      -0.108750
      8 C18         22.5640     6.9140    12.5230 ca         1 MKQ      -0.097000
      9 C14         17.8070    10.4010    19.1780 ca         1 MKQ      -0.102000
     10 C15         17.5110     9.0320    19.2670 ca         1 MKQ      -0.108750
     11 C12         19.0260     9.9960    17.1100 ca         1 MKQ      -0.097000
     12 C11         18.7400     8.6080    17.1790 cp         1 MKQ      -0.045000
     13 C9          19.2310     7.6640    16.1260 cp         1 MKQ      -0.045500
     14 C8          20.4990     7.8420    15.5180 ca         1 MKQ      -0.043000
     15 C7          20.9910     6.9700    14.5160 cp         1 MKQ      -0.045500
     16 C6          20.1710     5.8860    14.1210 ca         1 MKQ      -0.013000
     17 C5          18.9050     5.6810    14.7070 ca         1 MKQ      -0.312500
     18 C10         18.4430     6.5660    15.7030 ca         1 MKQ      -0.013000
     19 O4          16.5150     4.4850    14.6320 o          1 MKQ      -0.528500
     20 S2          17.8920     4.2960    14.1830 sy         1 MKQ       1.143600
     21 N1          18.4590     3.1020    15.1440 n8         1 MKQ      -1.002100
     22 C19         23.8270     7.1170    11.9400 ca         1 MKQ      -0.108750
     23 H2          25.8710     7.7520    12.2690 ha         1 MKQ       0.115500
     24 H3          25.5180     8.2390    14.6890 ha         1 MKQ       0.115750
     25 H4          17.7430     7.0870    18.3750 ha         1 MKQ       0.114500
     26 H5          18.7920    11.9440    18.0250 ha         1 MKQ       0.115750
     27 H6          21.7500     6.5560    11.8980 ha         1 MKQ       0.114500
     28 H7          17.4490    11.0870    19.9430 ha         1 MKQ       0.115500
     29 H8          16.9270     8.6550    20.1040 ha         1 MKQ       0.115750
     30 H9          19.5990    10.3930    16.2760 ha         1 MKQ       0.114500
     31 H10         21.1150     8.6790    15.8320 ha         1 MKQ       0.123000
     32 H11         20.5320     5.1920    13.3640 ha         1 MKQ       0.138500
     33 H12         17.4590     6.4180    16.1450 ha         1 MKQ       0.138500
     34 H13         18.9160     3.6270    15.8850 hn         1 MKQ       0.477500
     35 H14         17.5970     2.7750    15.5720 hn         1 MKQ       0.477500
     36 H15         23.9790     6.9060    10.8840 ha         1 MKQ       0.115750
     37 H1          23.3000     7.8750    15.7230 ha         1 MKQ       0.114500
@<TRIPOS>BOND
     1     1    20 2   
     2     2     4 ar  
     3     2     5 ar  
     4     2    37 1   
     5     3     4 ar  
     6     3    22 ar  
     7     3    23 1   
     8     4    24 1   
     9     5     8 ar  
    10     5    15 1   
    11     6    10 ar  
    12     6    12 ar  
    13     6    25 1   
    14     7     9 ar  
    15     7    11 ar  
    16     7    26 1   
    17     8    22 ar  
    18     8    27 1   
    19     9    10 ar  
    20     9    28 1   
    21    10    29 1   
    22    11    12 ar  
    23    11    30 1   
    24    12    13 1   
    25    13    14 ar  
    26    13    18 ar  
    27    14    15 ar  
    28    14    31 1   
    29    15    16 ar  
    30    16    17 ar  
    31    16    32 1   
    32    17    18 ar  
    33    17    20 1   
    34    18    33 1   
    35    19    20 2   
    36    20    21 1   
    37    21    34 1   
    38    21    35 1   
    39    22    36 1   
@<TRIPOS>SUBSTRUCTURE
     1 MKQ         1 TEMP              0 ****  ****    0 ROOT
