@<TRIPOS>MOLECULE
MKQ
   37    39     1     0     0
SMALL
bcc


@<TRIPOS>ATOM
      1 O3          18.5530     3.7310    13.0360 o          1 MKQ      -0.599300
      2 C22         23.3930     7.6300    14.6960 ca         1 MKQ      -0.115000
      3 C20         24.8200     7.6500    12.7580 ca         1 MKQ      -0.120000
      4 C21         24.6340     7.8530    14.1200 ca         1 MKQ      -0.126750
      5 C17         22.3160     7.2000    13.9200 cp         1 MKQ      -0.045000
      6 C16         18.0180     8.0970    18.2130 ca         1 MKQ      -0.115000
      7 C13         18.5720    10.8080    18.0390 ca         1 MKQ      -0.126750
      8 C18         22.5140     6.9960    12.5540 ca         1 MKQ      -0.115000
      9 C14         17.8420    10.3210    19.1150 ca         1 MKQ      -0.120000
     10 C15         17.5660     8.9620    19.1980 ca         1 MKQ      -0.126750
     11 C12         19.0270     9.9420    17.0550 ca         1 MKQ      -0.115000
     12 C11         18.7560     8.5750    17.1300 cp         1 MKQ      -0.045000
     13 C9          19.2450     7.6500    16.0880 cp         1 MKQ      -0.045500
     14 C8          20.5010     7.8290    15.5090 ca         1 MKQ      -0.061000
     15 C7          20.9890     6.9740    14.5260 cp         1 MKQ      -0.045500
     16 C6          20.1990     5.8990    14.1190 ca         1 MKQ      -0.031000
     17 C5          18.9510     5.7230    14.6890 ca         1 MKQ      -0.312500
     18 C10         18.4580     6.5860    15.6580 ca         1 MKQ      -0.031000
     19 O4          16.5660     4.7640    14.1880 o          1 MKQ      -0.599300
     20 S2          17.9530     4.3310    14.2150 sy         1 MKQ       1.285200
     21 N1          18.0690     3.2200    15.4170 n8         1 MKQ      -0.891700
     22 C19         23.7560     7.2180    11.9780 ca         1 MKQ      -0.126750
     23 H2          25.7890     7.8260    12.3090 ha         1 MKQ       0.133500
     24 H3          25.4610     8.1800    14.7370 ha         1 MKQ       0.133750
     25 H4          17.8140     7.0370    18.3030 ha         1 MKQ       0.132500
     26 H5          18.7870    11.8660    17.9620 ha         1 MKQ       0.133750
     27 H6          21.6860     6.6810    11.9300 ha         1 MKQ       0.132500
     28 H7          17.4890    10.9960    19.8840 ha         1 MKQ       0.133500
     29 H8          17.0050     8.5720    20.0370 ha         1 MKQ       0.133750
     30 H9          19.5790    10.3390    16.2120 ha         1 MKQ       0.132500
     31 H10         21.1120     8.6620    15.8350 ha         1 MKQ       0.141000
     32 H11         20.5670     5.2090    13.3720 ha         1 MKQ       0.156500
     33 H12         17.4610     6.4540    16.0590 ha         1 MKQ       0.156500
     34 H13         19.0080     2.8650    15.5630 hn         1 MKQ       0.422300
     35 H14         17.6390     3.5050    16.2890 hn         1 MKQ       0.422300
     36 H15         23.8900     7.0610    10.9150 ha         1 MKQ       0.133750
     37 H1          23.2680     7.7760    15.7620 ha         1 MKQ       0.132500
@<TRIPOS>BOND
     1     1    20 2   
     2     2     4 ar  
     3     2     5 ar  
     4     2    37 1   
     5     3     4 ar  
     6     3    22 ar  
     7     3    23 1   
     8     4    24 1   
     9     5     8 ar  
    10     5    15 1   
    11     6    10 ar  
    12     6    12 ar  
    13     6    25 1   
    14     7     9 ar  
    15     7    11 ar  
    16     7    26 1   
    17     8    22 ar  
    18     8    27 1   
    19     9    10 ar  
    20     9    28 1   
    21    10    29 1   
    22    11    12 ar  
    23    11    30 1   
    24    12    13 1   
    25    13    14 ar  
    26    13    18 ar  
    27    14    15 ar  
    28    14    31 1   
    29    15    16 ar  
    30    16    17 ar  
    31    16    32 1   
    32    17    18 ar  
    33    17    20 1   
    34    18    33 1   
    35    19    20 2   
    36    20    21 1   
    37    21    34 1   
    38    21    35 1   
    39    22    36 1   
@<TRIPOS>SUBSTRUCTURE
     1 MKQ         1 TEMP              0 ****  ****    0 ROOT
