@<TRIPOS>MOLECULE
MKR
   66    70     1     0     0
SMALL
No Charge or Current Charge


@<TRIPOS>ATOM
      1 C1           3.9960     4.2010     0.9630 ca         1 MKR       0.171000
      2 C2           3.2150     3.0680     1.2320 ca         1 MKR      -0.153000
      3 C3           2.8120     2.2300     0.1770 ca         1 MKR       0.285000
      4 C4           3.2130     2.5320    -1.1560 ca         1 MKR       0.058100
      5 C5           3.9820     3.6800    -1.4140 ca         1 MKR      -0.083000
      6 C6           4.3760     4.5130    -0.3520 ca         1 MKR      -0.152000
      7 N2           1.9930     1.0950     0.3870 nh         1 MKR      -0.507500
      8 N12          1.7320     0.5220     1.5730 n2         1 MKR      -0.321400
      9 C8           1.1860    -0.6480     1.4680 ce         1 MKR       0.206300
     10 C14          1.2470    -1.1430    -0.0030 c5         1 MKR      -0.034000
     11 C15          1.5250     0.2540    -0.7250 c5         1 MKR       0.160500
     12 C18          2.4700    -2.0690    -0.2910 ca         1 MKR      -0.072300
     13 C20          1.3560    -1.7390     2.5060 c          1 MKR       0.516800
     14 C9           2.4450    -1.5560     3.5710 c3         1 MKR      -0.184100
     15 O25          0.7120    -2.7840     2.4760 o          1 MKR      -0.509100
     16 C26          3.7480    -1.7690     0.2460 ca         1 MKR      -0.101500
     17 C27          4.8590    -2.5920     0.0010 ca         1 MKR      -0.107000
     18 C28          4.7240    -3.7380    -0.7920 ca         1 MKR      -0.102000
     19 C29          3.4760    -4.0540    -1.3440 ca         1 MKR      -0.107000
     20 C30          2.3630    -3.2310    -1.1000 ca         1 MKR      -0.101500
     21 O1           2.8480     1.7180    -2.2240 os         1 MKR      -0.334100
     22 F1           4.3780     5.0050     1.9790 f          1 MKR      -0.176000
     23 C7           2.4760     0.3360    -1.9560 c6         1 MKR       0.148600
     24 C10         -0.1240    -1.7570    -0.4530 c3         1 MKR      -0.061400
     25 C11         -1.4060    -1.0010    -0.0080 c3         1 MKR      -0.080400
     26 C12         -2.6990    -1.6610    -0.5390 c3         1 MKR       0.167800
     27 N3          -3.9560    -1.0800    -0.0070 n3         1 MKR      -0.715600
     28 C16         -5.1480    -1.9040    -0.3730 c6         1 MKR       0.142300
     29 C17         -4.1730     0.3520    -0.3870 c6         1 MKR       0.142300
     30 C19         -6.4590    -1.3420     0.2420 c6         1 MKR       0.096500
     31 C21         -5.4830     0.9270     0.2220 c6         1 MKR       0.096500
     32 N1          -6.6630     0.0850    -0.1300 n          1 MKR      -0.415800
     33 C22         -7.7130     0.5000    -0.9810 c          1 MKR       0.607100
     34 C24         -7.8590     1.9860    -1.3170 c3         1 MKR      -0.176100
     35 O2          -8.5260    -0.3050    -1.4170 o          1 MKR      -0.607100
     36 H2           2.9170     2.8480     2.2510 ha         1 MKR       0.151000
     37 H5           4.2790     3.9160    -2.4330 ha         1 MKR       0.134000
     38 H6           4.9770     5.3990    -0.5450 ha         1 MKR       0.137000
     39 H15          0.5770     0.6780    -1.0790 h1         1 MKR       0.085700
     40 H91          2.2190    -0.6550     4.1530 hc         1 MKR       0.066700
     41 H92          2.5560    -2.4330     4.2180 hc         1 MKR       0.066700
     42 H93          3.3910    -1.2860     3.0910 hc         1 MKR       0.066700
     43 H26          3.8980    -0.8770     0.8470 ha         1 MKR       0.113500
     44 H27          5.8280    -2.3360     0.4250 ha         1 MKR       0.115500
     45 H28          5.5850    -4.3760    -0.9830 ha         1 MKR       0.116000
     46 H29          3.3680    -4.9400    -1.9660 ha         1 MKR       0.115500
     47 H30          1.4220    -3.5170    -1.5570 ha         1 MKR       0.113500
     48 H71          3.4050    -0.2170    -1.7710 h1         1 MKR       0.075200
     49 H72          1.9990    -0.0970    -2.8460 h1         1 MKR       0.075200
     50 H101        -0.1420    -1.8380    -1.5470 hc         1 MKR       0.057200
     51 H102        -0.2060    -2.7810    -0.0680 hc         1 MKR       0.057200
     52 H111        -1.4570    -0.9750     1.0870 hc         1 MKR       0.051700
     53 H112        -1.3620     0.0370    -0.3540 hc         1 MKR       0.051700
     54 H121        -2.6970    -1.6100    -1.6360 h1         1 MKR       0.032200
     55 H122        -2.6590    -2.7260    -0.2690 h1         1 MKR       0.032200
     56 H161        -5.2610    -1.9400    -1.4670 h1         1 MKR       0.039950
     57 H162        -5.0160    -2.9390    -0.0280 h1         1 MKR       0.039950
     58 H171        -3.3400     0.9790    -0.0410 h1         1 MKR       0.039950
     59 H172        -4.2200     0.4510    -1.4820 h1         1 MKR       0.039950
     60 H191        -7.3060    -1.9630    -0.0810 h1         1 MKR       0.061950
     61 H192        -6.4020    -1.4190     1.3370 h1         1 MKR       0.061950
     62 H211        -5.3830     0.9520     1.3160 h1         1 MKR       0.061950
     63 H212        -5.6030     1.9660    -0.1090 h1         1 MKR       0.061950
     64 H241        -6.9730     2.3140    -1.8720 hc         1 MKR       0.059700
     65 H242        -8.7730     2.1990    -1.8830 hc         1 MKR       0.059700
     66 H243        -7.8060     2.5760    -0.3960 hc         1 MKR       0.059700
@<TRIPOS>BOND
     1     1     2 ar  
     2     1     6 ar  
     3     1    22 1   
     4     2     3 ar  
     5     2    36 1   
     6     3     4 ar  
     7     3     7 1   
     8     4     5 ar  
     9     4    21 1   
    10     5     6 ar  
    11     5    37 1   
    12     6    38 1   
    13     7     8 1   
    14     7    11 1   
    15     8     9 2   
    16     9    10 1   
    17     9    13 1   
    18    10    11 1   
    19    10    12 1   
    20    10    24 1   
    21    11    23 1   
    22    11    39 1   
    23    12    16 ar  
    24    12    20 ar  
    25    13    14 1   
    26    13    15 2   
    27    14    40 1   
    28    14    41 1   
    29    14    42 1   
    30    16    17 ar  
    31    16    43 1   
    32    17    18 ar  
    33    17    44 1   
    34    18    19 ar  
    35    18    45 1   
    36    19    20 ar  
    37    19    46 1   
    38    20    47 1   
    39    21    23 1   
    40    23    48 1   
    41    23    49 1   
    42    24    25 1   
    43    24    50 1   
    44    24    51 1   
    45    25    26 1   
    46    25    52 1   
    47    25    53 1   
    48    26    27 1   
    49    26    54 1   
    50    26    55 1   
    51    27    28 1   
    52    27    29 1   
    53    28    30 1   
    54    28    56 1   
    55    28    57 1   
    56    29    31 1   
    57    29    58 1   
    58    29    59 1   
    59    30    32 1   
    60    30    60 1   
    61    30    61 1   
    62    31    32 1   
    63    31    62 1   
    64    31    63 1   
    65    32    33 1   
    66    33    34 1   
    67    33    35 2   
    68    34    64 1   
    69    34    65 1   
    70    34    66 1   
@<TRIPOS>SUBSTRUCTURE
     1 MKR         1 TEMP              0 ****  ****    0 ROOT
