@<TRIPOS>MOLECULE
MKR
   66    70     1     0     0
SMALL
abcg2


@<TRIPOS>ATOM
      1 C1           3.2400     4.3180     0.7840 ca         1 MKR       0.171000
      2 C2           2.6750     3.0990     1.0910 ca         1 MKR      -0.153000
      3 C3           2.4950     2.1740     0.0670 ca         1 MKR       0.285000
      4 C4           2.9060     2.4780    -1.2400 ca         1 MKR       0.058100
      5 C5           3.4640     3.7180    -1.5070 ca         1 MKR      -0.083000
      6 C6           3.6300     4.6560    -0.4980 ca         1 MKR      -0.152000
      7 N2           1.9040     0.9450     0.2690 nh         1 MKR      -0.507500
      8 N12          1.7730     0.3770     1.4520 n2         1 MKR      -0.321400
      9 C8           1.4570    -0.8610     1.3060 ce         1 MKR       0.206300
     10 C14          1.3910    -1.3130    -0.1440 c5         1 MKR      -0.034000
     11 C15          1.6000     0.0620    -0.8470 c5         1 MKR       0.160500
     12 C18          2.5220    -2.2870    -0.4540 ca         1 MKR      -0.072300
     13 C20          1.2670    -1.7240     2.4740 c          1 MKR       0.516800
     14 C9           1.3920    -1.0950     3.8340 c3         1 MKR      -0.184100
     15 O25          1.0240    -2.9050     2.3200 o          1 MKR      -0.509100
     16 C26          3.7370    -2.2010     0.2260 ca         1 MKR      -0.101500
     17 C27          4.7920    -3.0470    -0.0810 ca         1 MKR      -0.107000
     18 C28          4.6560    -3.9980    -1.0830 ca         1 MKR      -0.102000
     19 C29          3.4560    -4.0900    -1.7720 ca         1 MKR      -0.107000
     20 C30          2.4010    -3.2420    -1.4610 ca         1 MKR      -0.101500
     21 O1           2.7680     1.5910    -2.2580 os         1 MKR      -0.334100
     22 F1           3.4090     5.2110     1.7740 f          1 MKR      -0.176000
     23 C7           2.7040     0.2230    -1.8760 c6         1 MKR       0.148600
     24 C10          0.0110    -1.8830    -0.5170 c3         1 MKR      -0.061400
     25 C11         -1.1720    -1.1010     0.0420 c3         1 MKR      -0.080400
     26 C12         -2.4750    -1.6230    -0.5520 c3         1 MKR       0.167800
     27 N3          -3.6640    -1.0330     0.0340 n3         1 MKR      -0.715600
     28 C16         -4.8530    -1.7790    -0.3360 c6         1 MKR       0.142300
     29 C17         -3.8220     0.3680    -0.3100 c6         1 MKR       0.142300
     30 C19         -6.0860    -1.2140     0.3480 c6         1 MKR       0.096500
     31 C21         -5.0450     0.9570     0.3750 c6         1 MKR       0.096500
     32 N1          -6.2290     0.1950     0.0330 n          1 MKR      -0.415800
     33 C22         -7.3010     0.6650    -0.6410 c          1 MKR       0.607100
     34 C24         -7.3100     2.1360    -0.9890 c3         1 MKR      -0.176100
     35 O2          -8.2380    -0.0590    -0.9590 o          1 MKR      -0.607100
     36 H2           2.3730     2.8650     2.1030 ha         1 MKR       0.151000
     37 H5           3.7770     3.9500    -2.5170 ha         1 MKR       0.134000
     38 H6           4.0690     5.6220    -0.7080 ha         1 MKR       0.137000
     39 H15          0.6620     0.3850    -1.3110 h1         1 MKR       0.085700
     40 H91          0.6990    -0.2620     3.9470 hc         1 MKR       0.066700
     41 H92          1.1900    -1.8330     4.6080 hc         1 MKR       0.066700
     42 H93          2.3960    -0.6950     3.9810 hc         1 MKR       0.066700
     43 H26          3.8770    -1.4640     1.0090 ha         1 MKR       0.113500
     44 H27          5.7230    -2.9610     0.4660 ha         1 MKR       0.115500
     45 H28          5.4780    -4.6600    -1.3240 ha         1 MKR       0.116000
     46 H29          3.3370    -4.8240    -2.5580 ha         1 MKR       0.115500
     47 H30          1.4790    -3.3380    -2.0180 ha         1 MKR       0.113500
     48 H71          3.6690    -0.1040    -1.4790 h1         1 MKR       0.075200
     49 H72          2.4860    -0.3460    -2.7780 h1         1 MKR       0.075200
     50 H101        -0.0650    -1.9060    -1.6090 hc         1 MKR       0.057200
     51 H102        -0.0540    -2.9190    -0.1820 hc         1 MKR       0.057200
     52 H111        -1.2180    -1.2000     1.1290 hc         1 MKR       0.051700
     53 H112        -1.0610    -0.0340    -0.1690 hc         1 MKR       0.051700
     54 H121        -2.4530    -1.4900    -1.6480 h1         1 MKR       0.032200
     55 H122        -2.5230    -2.7020    -0.3770 h1         1 MKR       0.032200
     56 H161        -5.0160    -1.7760    -1.4280 h1         1 MKR       0.039950
     57 H162        -4.7270    -2.8210    -0.0330 h1         1 MKR       0.039950
     58 H171        -2.9460     0.9310     0.0150 h1         1 MKR       0.039950
     59 H172        -3.9170     0.5110    -1.4010 h1         1 MKR       0.039950
     60 H191        -6.9730    -1.7550     0.0310 h1         1 MKR       0.061950
     61 H192        -5.9890    -1.3270     1.4320 h1         1 MKR       0.061950
     62 H211        -4.9050     0.9250     1.4600 h1         1 MKR       0.061950
     63 H212        -5.1540     2.0000     0.0940 h1         1 MKR       0.061950
     64 H241        -6.5020     2.3890    -1.6770 hc         1 MKR       0.059700
     65 H242        -8.2540     2.3780    -1.4700 hc         1 MKR       0.059700
     66 H243        -7.2020     2.7680    -0.1080 hc         1 MKR       0.059700
@<TRIPOS>BOND
     1     1     2 ar  
     2     1     6 ar  
     3     1    22 1   
     4     2     3 ar  
     5     2    36 1   
     6     3     4 ar  
     7     3     7 1   
     8     4     5 ar  
     9     4    21 1   
    10     5     6 ar  
    11     5    37 1   
    12     6    38 1   
    13     7     8 1   
    14     7    11 1   
    15     8     9 2   
    16     9    10 1   
    17     9    13 1   
    18    10    11 1   
    19    10    12 1   
    20    10    24 1   
    21    11    23 1   
    22    11    39 1   
    23    12    16 ar  
    24    12    20 ar  
    25    13    14 1   
    26    13    15 2   
    27    14    40 1   
    28    14    41 1   
    29    14    42 1   
    30    16    17 ar  
    31    16    43 1   
    32    17    18 ar  
    33    17    44 1   
    34    18    19 ar  
    35    18    45 1   
    36    19    20 ar  
    37    19    46 1   
    38    20    47 1   
    39    21    23 1   
    40    23    48 1   
    41    23    49 1   
    42    24    25 1   
    43    24    50 1   
    44    24    51 1   
    45    25    26 1   
    46    25    52 1   
    47    25    53 1   
    48    26    27 1   
    49    26    54 1   
    50    26    55 1   
    51    27    28 1   
    52    27    29 1   
    53    28    30 1   
    54    28    56 1   
    55    28    57 1   
    56    29    31 1   
    57    29    58 1   
    58    29    59 1   
    59    30    32 1   
    60    30    60 1   
    61    30    61 1   
    62    31    32 1   
    63    31    62 1   
    64    31    63 1   
    65    32    33 1   
    66    33    34 1   
    67    33    35 2   
    68    34    64 1   
    69    34    65 1   
    70    34    66 1   
@<TRIPOS>SUBSTRUCTURE
     1 MKR         1 TEMP              0 ****  ****    0 ROOT
