@<TRIPOS>MOLECULE
MKS
   56    58     1     0     0
SMALL
bcc


@<TRIPOS>ATOM
      1 CAD         -5.8110     2.7800     0.4790 c3         1 MKS      -0.056400
      2 CAS         -4.6470     2.7200    -0.4640 c2         1 MKS      -0.118400
      3 CAE         -4.8780     3.4240    -1.7710 c3         1 MKS      -0.056400
      4 CAK         -3.4860     2.1070    -0.2190 c2         1 MKS      -0.158200
      5 CAO         -3.0920     1.3560     1.0210 c3         1 MKS      -0.001900
      6 CAX         -2.6580    -0.0580     0.7030 ca         1 MKS       0.047700
      7 CBD         -1.3280    -0.4030     0.3320 ca         1 MKS      -0.249600
      8 CAZ         -0.2410     0.5590     0.1700 c          1 MKS       0.634300
      9 OAF         -0.3890     1.7840     0.2900 o          1 MKS      -0.596100
     10 CBC          1.0610     0.0140    -0.1510 ca         1 MKS      -0.390600
     11 CAV          2.2020     0.8500    -0.2820 ca         1 MKS       0.285100
     12 OAI          2.0850     2.1610    -0.1000 oh         1 MKS      -0.504100
     13 CAW          3.4520     0.3270    -0.5890 ca         1 MKS      -0.207300
     14 CAN          4.6720     1.2080    -0.6810 c3         1 MKS       0.036100
     15 CAJ          5.4020     1.2500     0.6300 c2         1 MKS      -0.163200
     16 CAR          6.6410     0.8320     0.8990 c2         1 MKS      -0.115400
     17 CAC          7.1980     0.9410     2.2900 c3         1 MKS      -0.052900
     18 CAB          7.5870     0.2340    -0.0990 c3         1 MKS      -0.052900
     19 CAT          3.5570    -1.0620    -0.7540 ca         1 MKS       0.249100
     20 OAG          4.7710    -1.5440    -1.0310 oh         1 MKS      -0.473100
     21 CAL          2.4590    -1.9120    -0.6410 ca         1 MKS      -0.323000
     22 CBA          1.2330    -1.3560    -0.3400 ca         1 MKS       0.253100
     23 OAQ          0.1900    -2.1960    -0.2360 os         1 MKS      -0.217200
     24 CBB         -1.0380    -1.7540     0.1040 ca         1 MKS       0.210100
     25 CAM         -1.9900    -2.7520     0.2180 ca         1 MKS      -0.276000
     26 CAU         -3.2790    -2.4080     0.5710 ca         1 MKS       0.187100
     27 OAH         -4.2520    -3.3060     0.7260 oh         1 MKS      -0.467100
     28 CAY         -3.6110    -1.0570     0.8010 ca         1 MKS       0.026100
     29 OAP         -4.8860    -0.7710     1.1750 os         1 MKS      -0.319900
     30 CAA         -5.8280    -0.7130     0.1090 c3         1 MKS       0.122700
     31 H1          -5.6310     2.2880     1.4320 hc         1 MKS       0.038700
     32 H2          -6.0800     3.8180     0.6880 hc         1 MKS       0.038700
     33 H3          -6.6920     2.3170     0.0280 hc         1 MKS       0.038700
     34 H4          -5.1010     4.4820    -1.6130 hc         1 MKS       0.038700
     35 H5          -4.0160     3.3570    -2.4330 hc         1 MKS       0.038700
     36 H6          -5.7400     3.0020    -2.2930 hc         1 MKS       0.038700
     37 H7          -2.7250     2.1460    -0.9930 ha         1 MKS       0.127000
     38 H8          -2.2860     1.8830     1.5260 hc         1 MKS       0.076200
     39 H9          -3.9210     1.3090     1.7230 hc         1 MKS       0.076200
     40 H10          1.1270     2.3430     0.0830 ho         1 MKS       0.486000
     41 H11          5.3190     0.8670    -1.4880 hc         1 MKS       0.059700
     42 H12          4.3650     2.2200    -0.9530 hc         1 MKS       0.059700
     43 H13          4.8240     1.6660     1.4520 ha         1 MKS       0.119000
     44 H14          7.4920    -0.0410     2.6710 hc         1 MKS       0.036700
     45 H15          8.0990     1.5600     2.3050 hc         1 MKS       0.036700
     46 H16          6.4800     1.3720     2.9860 hc         1 MKS       0.036700
     47 H17          7.1710     0.1420    -1.0990 hc         1 MKS       0.036700
     48 H18          8.4970     0.8350    -0.1690 hc         1 MKS       0.036700
     49 H19          7.8990    -0.7620     0.2240 hc         1 MKS       0.036700
     50 H20          4.7450    -2.5030    -1.1300 ho         1 MKS       0.432000
     51 H21          2.5590    -2.9820    -0.7780 ha         1 MKS       0.154000
     52 H22         -1.7140    -3.7850     0.0410 ha         1 MKS       0.156000
     53 H23         -3.9250    -4.1970     0.5540 ho         1 MKS       0.432000
     54 H24         -6.7770    -0.4010     0.5410 h1         1 MKS       0.039033
     55 H25         -5.5290     0.0150    -0.6480 h1         1 MKS       0.039033
     56 H26         -5.9650    -1.6850    -0.3690 h1         1 MKS       0.039033
@<TRIPOS>BOND
     1     1     2 1   
     2     1    31 1   
     3     1    32 1   
     4     1    33 1   
     5     2     3 1   
     6     2     4 2   
     7     3    34 1   
     8     3    35 1   
     9     3    36 1   
    10     4     5 1   
    11     4    37 1   
    12     5     6 1   
    13     5    38 1   
    14     5    39 1   
    15     6     7 ar  
    16     6    28 ar  
    17     7     8 1   
    18     7    24 ar  
    19     8     9 2   
    20     8    10 1   
    21    10    11 ar  
    22    10    22 ar  
    23    11    12 1   
    24    11    13 ar  
    25    12    40 1   
    26    13    14 1   
    27    13    19 ar  
    28    14    15 1   
    29    14    41 1   
    30    14    42 1   
    31    15    16 2   
    32    15    43 1   
    33    16    17 1   
    34    16    18 1   
    35    17    44 1   
    36    17    45 1   
    37    17    46 1   
    38    18    47 1   
    39    18    48 1   
    40    18    49 1   
    41    19    20 1   
    42    19    21 ar  
    43    20    50 1   
    44    21    22 ar  
    45    21    51 1   
    46    22    23 1   
    47    23    24 1   
    48    24    25 ar  
    49    25    26 ar  
    50    25    52 1   
    51    26    27 1   
    52    26    28 ar  
    53    27    53 1   
    54    28    29 1   
    55    29    30 1   
    56    30    54 1   
    57    30    55 1   
    58    30    56 1   
@<TRIPOS>SUBSTRUCTURE
     1 MKS         1 TEMP              0 ****  ****    0 ROOT
