@<TRIPOS>MOLECULE
MKS
   56    58     1     0     0
SMALL
No Charge or Current Charge


@<TRIPOS>ATOM
      1 CAD         -5.8500     2.8300     0.6280 c3         1 MKS      -0.056400
      2 CAS         -4.6840     2.7910    -0.3500 c2         1 MKS      -0.118400
      3 CAE         -4.9970     3.5480    -1.6280 c3         1 MKS      -0.056400
      4 CAK         -3.4990     2.1750    -0.1610 c2         1 MKS      -0.208200
      5 CAO         -3.0150     1.3760     1.0430 c3         1 MKS      -0.001900
      6 CAX         -2.6260    -0.0650     0.6670 ca         1 MKS       0.047700
      7 CBD         -1.3190    -0.4360     0.2120 ca         1 MKS      -0.249600
      8 CAZ         -0.1840     0.5330    -0.0200 c          1 MKS       0.634300
      9 OAF         -0.3270     1.7490     0.0020 o          1 MKS      -0.596100
     10 CBC          1.1650    -0.0300    -0.3340 ca         1 MKS      -0.390600
     11 CAV          2.3190     0.7720    -0.4400 ca         1 MKS       0.285100
     12 OAI          2.2190     2.1140    -0.2480 oh         1 MKS      -0.543100
     13 CAW          3.5760     0.2020    -0.7380 ca         1 MKS      -0.207300
     14 CAN          4.8300     1.0820    -0.8400 c3         1 MKS       0.036100
     15 CAJ          5.4420     1.3490     0.5260 c2         1 MKS      -0.213200
     16 CAR          6.6290     0.9400     1.0170 c2         1 MKS      -0.115400
     17 CAC          7.0960     1.3180     2.4110 c3         1 MKS      -0.052900
     18 CAB          7.6500     0.0710     0.2950 c3         1 MKS      -0.052900
     19 CAT          3.6570    -1.1910    -0.9300 ca         1 MKS       0.249100
     20 OAG          4.8450    -1.7940    -1.2140 oh         1 MKS      -0.512100
     21 CAL          2.5120    -1.9840    -0.8330 ca         1 MKS      -0.305000
     22 CBA          1.2770    -1.4060    -0.5370 ca         1 MKS       0.253100
     23 OAQ          0.1840    -2.2230    -0.4600 os         1 MKS      -0.217200
     24 CBB         -1.0540    -1.7940    -0.0570 ca         1 MKS       0.210100
     25 CAM         -2.0440    -2.7690     0.0820 ca         1 MKS      -0.258000
     26 CAU         -3.3300    -2.4160     0.4900 ca         1 MKS       0.187100
     27 OAH         -4.2680    -3.4010     0.6320 oh         1 MKS      -0.506100
     28 CAY         -3.6300    -1.0650     0.7760 ca         1 MKS       0.026100
     29 OAP         -4.9040    -0.7100     1.1830 os         1 MKS      -0.343100
     30 CAA         -5.9970    -0.7760     0.2510 c3         1 MKS       0.145900
     31 H1          -5.6670     2.2770     1.5530 hc         1 MKS       0.038700
     32 H2          -6.0850     3.8630     0.9130 hc         1 MKS       0.038700
     33 H3          -6.7530     2.4020     0.1750 hc         1 MKS       0.038700
     34 H4          -5.2170     4.6020    -1.4190 hc         1 MKS       0.038700
     35 H5          -4.1590     3.5230    -2.3350 hc         1 MKS       0.038700
     36 H6          -5.8680     3.1190    -2.1380 hc         1 MKS       0.038700
     37 H7          -2.7480     2.2270    -0.9510 ha         1 MKS       0.177000
     38 H8          -2.1800     1.8910     1.5280 hc         1 MKS       0.076200
     39 H9          -3.7620     1.3600     1.8410 hc         1 MKS       0.076200
     40 H10          1.2490     2.2820    -0.1180 ho         1 MKS       0.525000
     41 H11          5.5540     0.6460    -1.5340 hc         1 MKS       0.059700
     42 H12          4.5770     2.0420    -1.3080 hc         1 MKS       0.059700
     43 H13          4.7980     1.9710     1.1500 ha         1 MKS       0.169000
     44 H14          7.2600     0.4270     3.0280 hc         1 MKS       0.036700
     45 H15          8.0380     1.8790     2.3740 hc         1 MKS       0.036700
     46 H16          6.3620     1.9460     2.9310 hc         1 MKS       0.036700
     47 H17          7.3240    -0.2530    -0.6970 hc         1 MKS       0.036700
     48 H18          8.5970     0.6080     0.1650 hc         1 MKS       0.036700
     49 H19          7.8630    -0.8380     0.8700 hc         1 MKS       0.036700
     50 H20          4.6810    -2.7550    -1.3010 ho         1 MKS       0.471000
     51 H21          2.5690    -3.0580    -0.9850 ha         1 MKS       0.136000
     52 H22         -1.7980    -3.8060    -0.1320 ha         1 MKS       0.138000
     53 H23         -3.8510    -4.2590     0.4120 ho         1 MKS       0.471000
     54 H24         -6.9210    -0.4210     0.7240 h1         1 MKS       0.039033
     55 H25         -5.7960    -0.1430    -0.6220 h1         1 MKS       0.039033
     56 H26         -6.1660    -1.8020    -0.0970 h1         1 MKS       0.039033
@<TRIPOS>BOND
     1     1     2 1   
     2     1    31 1   
     3     1    32 1   
     4     1    33 1   
     5     2     3 1   
     6     2     4 2   
     7     3    34 1   
     8     3    35 1   
     9     3    36 1   
    10     4     5 1   
    11     4    37 1   
    12     5     6 1   
    13     5    38 1   
    14     5    39 1   
    15     6     7 ar  
    16     6    28 ar  
    17     7     8 1   
    18     7    24 ar  
    19     8     9 2   
    20     8    10 1   
    21    10    11 ar  
    22    10    22 ar  
    23    11    12 1   
    24    11    13 ar  
    25    12    40 1   
    26    13    14 1   
    27    13    19 ar  
    28    14    15 1   
    29    14    41 1   
    30    14    42 1   
    31    15    16 2   
    32    15    43 1   
    33    16    17 1   
    34    16    18 1   
    35    17    44 1   
    36    17    45 1   
    37    17    46 1   
    38    18    47 1   
    39    18    48 1   
    40    18    49 1   
    41    19    20 1   
    42    19    21 ar  
    43    20    50 1   
    44    21    22 ar  
    45    21    51 1   
    46    22    23 1   
    47    23    24 1   
    48    24    25 ar  
    49    25    26 ar  
    50    25    52 1   
    51    26    27 1   
    52    26    28 ar  
    53    27    53 1   
    54    28    29 1   
    55    29    30 1   
    56    30    54 1   
    57    30    55 1   
    58    30    56 1   
@<TRIPOS>SUBSTRUCTURE
     1 MKS         1 TEMP              0 ****  ****    0 ROOT
