@<TRIPOS>MOLECULE
MKT
   53    55     1     0     0
SMALL
bcc


@<TRIPOS>ATOM
      1 CAA         -5.6670    -2.6780     0.5820 c3         1 MKT      -0.057900
      2 CAQ         -5.8320    -1.5690    -0.4140 c2         1 MKT      -0.092400
      3 CAB         -6.4460    -1.9910    -1.7170 c3         1 MKT      -0.057900
      4 CAJ         -5.4790    -0.2980    -0.2070 c2         1 MKT      -0.185200
      5 CAN         -4.8380     0.2880     1.0190 c3         1 MKT       0.030100
      6 CAW         -3.5020     0.9070     0.6920 ca         1 MKT      -0.271300
      7 CAV         -2.3490     0.1280     0.7290 ca         1 MKT       0.295100
      8 OAI         -2.4560    -1.1450     1.0890 oh         1 MKT      -0.504100
      9 CAT         -3.3770     2.2410     0.2770 ca         1 MKT       0.252100
     10 OAG         -4.4310     3.0600     0.1810 oh         1 MKT      -0.488100
     11 CAM         -2.1490     2.7990    -0.0750 ca         1 MKT      -0.259000
     12 CAZ         -1.0270     2.0030    -0.0070 ca         1 MKT       0.248100
     13 OAP          0.1410     2.5580    -0.3690 os         1 MKT      -0.210200
     14 CBB         -1.0800     0.6690     0.4000 ca         1 MKT      -0.393600
     15 CAY          0.1210    -0.1330     0.4720 c          1 MKT       0.637300
     16 OAE          0.0510    -1.3370     0.7610 o          1 MKT      -0.604100
     17 CBC          1.3760     0.5520     0.1720 ca         1 MKT      -0.239600
     18 CBA          1.3010     1.8740    -0.2880 ca         1 MKT       0.196100
     19 CAL          2.4130     2.5870    -0.7070 ca         1 MKT      -0.205000
     20 CAS          3.6470     1.9710    -0.6790 ca         1 MKT       0.197100
     21 OAF          4.7180     2.6350    -1.1120 oh         1 MKT      -0.478100
     22 CAU          3.7610     0.6600    -0.1800 ca         1 MKT      -0.020900
     23 OAH          5.0270     0.1620    -0.1410 oh         1 MKT      -0.530100
     24 CAX          2.6610    -0.0440     0.2710 ca         1 MKT       0.006700
     25 CAO          2.9390    -1.4050     0.8690 c3         1 MKT      -0.012900
     26 CAK          3.3320    -2.3930    -0.1950 c2         1 MKT      -0.179200
     27 CAR          4.4380    -3.1460    -0.2450 c2         1 MKT      -0.122400
     28 CAD          5.5200    -3.1510     0.7960 c3         1 MKT      -0.061400
     29 CAC          4.6580    -4.1070    -1.3770 c3         1 MKT      -0.061400
     30 H1          -5.0680    -3.4860     0.1550 hc         1 MKT       0.040533
     31 H2          -5.1890    -2.3660     1.5070 hc         1 MKT       0.040533
     32 H3          -6.6380    -3.1110     0.8350 hc         1 MKT       0.040533
     33 H4          -7.4440    -2.4120    -1.5630 hc         1 MKT       0.040533
     34 H5          -6.5350    -1.1630    -2.4190 hc         1 MKT       0.040533
     35 H6          -5.8500    -2.7750    -2.1910 hc         1 MKT       0.040533
     36 H7          -5.6480     0.4100    -1.0150 ha         1 MKT       0.113000
     37 H8          -5.5100     1.0290     1.4690 hc         1 MKT       0.051200
     38 H9          -4.7100    -0.4610     1.7980 hc         1 MKT       0.051200
     39 H10         -1.5440    -1.5310     1.0540 ho         1 MKT       0.485000
     40 H11         -5.2410     2.6430     0.4940 ho         1 MKT       0.441000
     41 H12         -2.0830     3.8290    -0.3990 ha         1 MKT       0.170000
     42 H13          2.3090     3.6010    -1.0710 ha         1 MKT       0.173000
     43 H14          5.5000     2.0670    -1.0600 ho         1 MKT       0.453000
     44 H15          5.0350    -0.7440    -0.4840 ho         1 MKT       0.442000
     45 H16          3.7250    -1.2900     1.6190 hc         1 MKT       0.079200
     46 H17          2.0670    -1.7760     1.3970 hc         1 MKT       0.079200
     47 H18          2.6120    -2.4950    -1.0020 ha         1 MKT       0.131000
     48 H21          5.4950    -4.0860     1.3600 hc         1 MKT       0.042867
     49 H22          6.5040    -3.0990     0.3270 hc         1 MKT       0.042867
     50 H23          5.4440    -2.3330     1.5090 hc         1 MKT       0.042867
     51 H24          5.5890    -3.8830    -1.9020 hc         1 MKT       0.042867
     52 H25          4.7520    -5.1290    -1.0010 hc         1 MKT       0.042867
     53 H26          3.8440    -4.0850    -2.1000 hc         1 MKT       0.042867
@<TRIPOS>BOND
     1     1     2 1   
     2     1    30 1   
     3     1    31 1   
     4     1    32 1   
     5     2     3 1   
     6     2     4 2   
     7     3    33 1   
     8     3    34 1   
     9     3    35 1   
    10     4     5 1   
    11     4    36 1   
    12     5     6 1   
    13     5    37 1   
    14     5    38 1   
    15     6     7 ar  
    16     6     9 ar  
    17     7     8 1   
    18     7    14 ar  
    19     8    39 1   
    20     9    10 1   
    21     9    11 ar  
    22    10    40 1   
    23    11    12 ar  
    24    11    41 1   
    25    12    13 1   
    26    12    14 ar  
    27    13    18 1   
    28    14    15 1   
    29    15    16 2   
    30    15    17 1   
    31    17    18 ar  
    32    17    24 ar  
    33    18    19 ar  
    34    19    20 ar  
    35    19    42 1   
    36    20    21 1   
    37    20    22 ar  
    38    21    43 1   
    39    22    23 1   
    40    22    24 ar  
    41    23    44 1   
    42    24    25 1   
    43    25    26 1   
    44    25    45 1   
    45    25    46 1   
    46    26    27 2   
    47    26    47 1   
    48    27    28 1   
    49    27    29 1   
    50    28    48 1   
    51    28    49 1   
    52    28    50 1   
    53    29    51 1   
    54    29    52 1   
    55    29    53 1   
@<TRIPOS>SUBSTRUCTURE
     1 MKT         1 TEMP              0 ****  ****    0 ROOT
