@<TRIPOS>MOLECULE
MKT
   53    55     1     0     0
SMALL
No Charge or Current Charge


@<TRIPOS>ATOM
      1 CAA         -5.6870    -2.8030     0.5840 c3         1 MKT      -0.057900
      2 CAQ         -5.9130    -1.6310    -0.3620 c2         1 MKT      -0.092400
      3 CAB         -6.6410    -2.0600    -1.6230 c3         1 MKT      -0.057900
      4 CAJ         -5.5310    -0.3540    -0.1590 c2         1 MKT      -0.235200
      5 CAN         -4.8020     0.2470     1.0330 c3         1 MKT       0.030100
      6 CAW         -3.4650     0.8770     0.6150 ca         1 MKT      -0.271300
      7 CAV         -2.2760     0.1150     0.6440 ca         1 MKT       0.295100
      8 OAI         -2.3160    -1.1840     1.0370 oh         1 MKT      -0.543100
      9 CAT         -3.3940     2.2150     0.1780 ca         1 MKT       0.252100
     10 OAG         -4.5060     2.9960     0.1070 oh         1 MKT      -0.527100
     11 CAM         -2.1740     2.7690    -0.2070 ca         1 MKT      -0.241000
     12 CAZ         -1.0060     2.0080    -0.1610 ca         1 MKT       0.248100
     13 OAP          0.1660     2.5890    -0.5620 os         1 MKT      -0.210200
     14 CBB         -1.0420     0.6790     0.2650 ca         1 MKT      -0.393600
     15 CAY          0.2360    -0.0920     0.2830 c          1 MKT       0.637300
     16 OAE          0.1950    -1.3090     0.4150 o          1 MKT      -0.604100
     17 CBC          1.5190     0.6710     0.0650 ca         1 MKT      -0.239600
     18 CBA          1.3930     1.9980    -0.3990 ca         1 MKT       0.196100
     19 CAL          2.5190     2.7660    -0.7110 ca         1 MKT      -0.187000
     20 CAS          3.7910     2.2200    -0.5730 ca         1 MKT       0.197100
     21 OAF          4.8910     2.9510    -0.9010 oh         1 MKT      -0.517100
     22 CAU          3.9590     0.9120    -0.0890 ca         1 MKT      -0.020900
     23 OAH          5.2370     0.4080     0.0050 oh         1 MKT      -0.569100
     24 CAX          2.8300     0.1310     0.2740 ca         1 MKT       0.006700
     25 CAO          3.0880    -1.2490     0.9030 c3         1 MKT      -0.012900
     26 CAK          3.3080    -2.3220    -0.1530 c2         1 MKT      -0.229200
     27 CAR          4.2970    -3.2340    -0.2370 c2         1 MKT      -0.122400
     28 CAD          5.4410    -3.4190     0.7510 c3         1 MKT      -0.061400
     29 CAC          4.3770    -4.2260    -1.3830 c3         1 MKT      -0.061400
     30 H1          -5.1120    -3.5960     0.0910 hc         1 MKT       0.040533
     31 H2          -5.1410    -2.5350     1.4920 hc         1 MKT       0.040533
     32 H3          -6.6430    -3.2380     0.9000 hc         1 MKT       0.040533
     33 H4          -7.6240    -2.4860    -1.3870 hc         1 MKT       0.040533
     34 H5          -6.8050    -1.2190    -2.3070 hc         1 MKT       0.040533
     35 H6          -6.0700    -2.8200    -2.1700 hc         1 MKT       0.040533
     36 H7          -5.7530     0.3860    -0.9300 ha         1 MKT       0.163000
     37 H8          -5.4490     0.9940     1.5100 hc         1 MKT       0.051200
     38 H9          -4.6420    -0.4860     1.8290 hc         1 MKT       0.051200
     39 H10         -1.3980    -1.5250     0.8810 ho         1 MKT       0.524000
     40 H11         -5.2700     2.4540     0.3850 ho         1 MKT       0.480000
     41 H12         -2.1320     3.8000    -0.5480 ha         1 MKT       0.152000
     42 H13          2.3990     3.7830    -1.0740 ha         1 MKT       0.155000
     43 H14          5.6540     2.3580    -0.7150 ho         1 MKT       0.492000
     44 H15          5.1830    -0.5690     0.1090 ho         1 MKT       0.481000
     45 H16          3.9350    -1.1740     1.5910 hc         1 MKT       0.079200
     46 H17          2.2750    -1.5420     1.5740 hc         1 MKT       0.079200
     47 H18          2.5380    -2.3020    -0.9270 ha         1 MKT       0.181000
     48 H21          5.4680    -4.4490     1.1260 hc         1 MKT       0.042867
     49 H22          6.4070    -3.2200     0.2720 hc         1 MKT       0.042867
     50 H23          5.3730    -2.7700     1.6280 hc         1 MKT       0.042867
     51 H24          5.3160    -4.1130    -1.9380 hc         1 MKT       0.042867
     52 H25          4.3260    -5.2580    -1.0180 hc         1 MKT       0.042867
     53 H26          3.5560    -4.0910    -2.0980 hc         1 MKT       0.042867
@<TRIPOS>BOND
     1     1     2 1   
     2     1    30 1   
     3     1    31 1   
     4     1    32 1   
     5     2     3 1   
     6     2     4 2   
     7     3    33 1   
     8     3    34 1   
     9     3    35 1   
    10     4     5 1   
    11     4    36 1   
    12     5     6 1   
    13     5    37 1   
    14     5    38 1   
    15     6     7 ar  
    16     6     9 ar  
    17     7     8 1   
    18     7    14 ar  
    19     8    39 1   
    20     9    10 1   
    21     9    11 ar  
    22    10    40 1   
    23    11    12 ar  
    24    11    41 1   
    25    12    13 1   
    26    12    14 ar  
    27    13    18 1   
    28    14    15 1   
    29    15    16 2   
    30    15    17 1   
    31    17    18 ar  
    32    17    24 ar  
    33    18    19 ar  
    34    19    20 ar  
    35    19    42 1   
    36    20    21 1   
    37    20    22 ar  
    38    21    43 1   
    39    22    23 1   
    40    22    24 ar  
    41    23    44 1   
    42    24    25 1   
    43    25    26 1   
    44    25    45 1   
    45    25    46 1   
    46    26    27 2   
    47    26    47 1   
    48    27    28 1   
    49    27    29 1   
    50    28    48 1   
    51    28    49 1   
    52    28    50 1   
    53    29    51 1   
    54    29    52 1   
    55    29    53 1   
@<TRIPOS>SUBSTRUCTURE
     1 MKT         1 TEMP              0 ****  ****    0 ROOT
