@<TRIPOS>MOLECULE
MKU
   56    59     1     0     0
SMALL
No Charge or Current Charge


@<TRIPOS>ATOM
      1 CAB         -5.7640    -2.9600    -0.5330 c3         1 MKU      -0.056400
      2 CAR         -4.6520    -2.6340     0.4540 c2         1 MKU      -0.123400
      3 CAC         -4.7770    -3.4310     1.7400 c3         1 MKU      -0.056400
      4 CAK         -3.6570    -1.7480     0.2530 c2         1 MKU      -0.204200
      5 CAN         -3.4290    -0.8550    -0.9600 c3         1 MKU      -0.003900
      6 CAW         -2.7600     0.4840    -0.6010 ca         1 MKU       0.056700
      7 CBC         -1.3460     0.6240    -0.4060 ca         1 MKU      -0.255600
      8 CAY         -0.3570    -0.5160    -0.4640 c          1 MKU       0.635300
      9 OAF         -0.6910    -1.6870    -0.5890 o          1 MKU      -0.603100
     10 CBB          1.0970    -0.1930    -0.3360 ca         1 MKU      -0.392600
     11 CAT          2.1060    -1.1690    -0.4530 ca         1 MKU       0.287100
     12 OAH          1.7680    -2.4630    -0.6870 oh         1 MKU      -0.548100
     13 CAV          3.4650    -0.8240    -0.3280 ca         1 MKU      -0.265300
     14 CAI          4.5630    -1.8890    -0.4750 c6         1 MKU      -0.002100
     15 CAJ          5.9590    -1.2590    -0.6520 c6         1 MKU      -0.106400
     16 CBD          6.1600    -0.0530     0.2980 c6         1 MKU       0.192000
     17 CAD          7.5000     0.6750     0.0070 c3         1 MKU      -0.100600
     18 CAE          6.1290    -0.4500     1.8040 c3         1 MKU      -0.100600
     19 OAP          5.1190     0.9210     0.0890 os         1 MKU      -0.344100
     20 CAU          3.8080     0.5170    -0.0580 ca         1 MKU       0.260100
     21 CAM          2.8090     1.4850     0.0500 ca         1 MKU      -0.241000
     22 CBA          1.4650     1.1320    -0.0870 ca         1 MKU       0.243100
     23 OAQ          0.5240     2.1150     0.0390 os         1 MKU      -0.213200
     24 CAZ         -0.8190     1.9060    -0.1390 ca         1 MKU       0.211100
     25 CAL         -1.6470     3.0280    -0.0530 ca         1 MKU      -0.197000
     26 CAS         -3.0210     2.8950    -0.2240 ca         1 MKU       0.196100
     27 OAG         -3.8230     3.9930    -0.1480 oh         1 MKU      -0.520100
     28 CAX         -3.5860     1.6370    -0.4810 ca         1 MKU      -0.046900
     29 OAO         -4.9570     1.5660    -0.6360 os         1 MKU      -0.366100
     30 CAA         -5.7750     1.1380     0.4690 c3         1 MKU       0.131900
     31 H1          -5.6380    -2.4670    -1.5020 hc         1 MKU       0.038700
     32 H2          -5.8050    -4.0380    -0.7320 hc         1 MKU       0.038700
     33 H3          -6.7400    -2.6590    -0.1350 hc         1 MKU       0.038700
     34 H4          -4.7230    -4.5090     1.5440 hc         1 MKU       0.038700
     35 H5          -3.9780    -3.1870     2.4500 hc         1 MKU       0.038700
     36 H6          -5.7320    -3.2280     2.2380 hc         1 MKU       0.038700
     37 H7          -2.9100    -1.6020     1.0350 ha         1 MKU       0.179000
     38 H8          -2.8370    -1.3850    -1.7140 hc         1 MKU       0.074700
     39 H9          -4.3740    -0.6680    -1.4790 hc         1 MKU       0.074700
     40 H10          0.7750    -2.4660    -0.6990 ho         1 MKU       0.524000
     41 H11          4.5580    -2.5390     0.4110 hc         1 MKU       0.058700
     42 H12          4.3550    -2.5430    -1.3330 hc         1 MKU       0.058700
     43 H13          6.7390    -2.0160    -0.4880 hc         1 MKU       0.056700
     44 H14          6.0690    -0.9210    -1.6920 hc         1 MKU       0.056700
     45 H15          7.5480     1.0150    -1.0340 hc         1 MKU       0.049033
     46 H16          7.6260     1.5550     0.6500 hc         1 MKU       0.049033
     47 H17          8.3560     0.0120     0.1790 hc         1 MKU       0.049033
     48 H18          6.9080    -1.1860     2.0340 hc         1 MKU       0.049033
     49 H19          6.2980     0.4220     2.4480 hc         1 MKU       0.049033
     50 H20          5.1670    -0.8860     2.0970 hc         1 MKU       0.049033
     51 H21          3.0790     2.5170     0.2490 ha         1 MKU       0.150000
     52 H22         -1.2170     4.0050     0.1470 ha         1 MKU       0.154000
     53 H23         -4.7300     3.6790    -0.3550 ho         1 MKU       0.488000
     54 H24         -6.8340     1.1440     0.1850 h1         1 MKU       0.043367
     55 H25         -5.5140     0.1210     0.7850 h1         1 MKU       0.043367
     56 H26         -5.6460     1.8070     1.3290 h1         1 MKU       0.043367
@<TRIPOS>BOND
     1     1     2 1   
     2     1    31 1   
     3     1    32 1   
     4     1    33 1   
     5     2     3 1   
     6     2     4 2   
     7     3    34 1   
     8     3    35 1   
     9     3    36 1   
    10     4     5 1   
    11     4    37 1   
    12     5     6 1   
    13     5    38 1   
    14     5    39 1   
    15     6     7 ar  
    16     6    28 ar  
    17     7     8 1   
    18     7    24 ar  
    19     8     9 2   
    20     8    10 1   
    21    10    11 ar  
    22    10    22 ar  
    23    11    12 1   
    24    11    13 ar  
    25    12    40 1   
    26    13    14 1   
    27    13    20 ar  
    28    14    15 1   
    29    14    41 1   
    30    14    42 1   
    31    15    16 1   
    32    15    43 1   
    33    15    44 1   
    34    16    17 1   
    35    16    18 1   
    36    16    19 1   
    37    17    45 1   
    38    17    46 1   
    39    17    47 1   
    40    18    48 1   
    41    18    49 1   
    42    18    50 1   
    43    19    20 1   
    44    20    21 ar  
    45    21    22 ar  
    46    21    51 1   
    47    22    23 1   
    48    23    24 1   
    49    24    25 ar  
    50    25    26 ar  
    51    25    52 1   
    52    26    27 1   
    53    26    28 ar  
    54    27    53 1   
    55    28    29 1   
    56    29    30 1   
    57    30    54 1   
    58    30    55 1   
    59    30    56 1   
@<TRIPOS>SUBSTRUCTURE
     1 MKU         1 TEMP              0 ****  ****    0 ROOT
