@<TRIPOS>MOLECULE
MKU
   56    59     1     0     0
SMALL
abcg2


@<TRIPOS>ATOM
      1 CAB         -5.9120    -2.5160    -0.2290 c3         1 MKU      -0.056400
      2 CAR         -4.6000    -2.5470     0.4960 c2         1 MKU      -0.123400
      3 CAC         -4.5910    -3.4290     1.7110 c3         1 MKU      -0.056400
      4 CAK         -3.5020    -1.8770     0.1360 c2         1 MKU      -0.204200
      5 CAN         -3.3360    -0.9760    -1.0560 c3         1 MKU      -0.003900
      6 CAW         -2.6970     0.3470    -0.6990 ca         1 MKU       0.056700
      7 CBC         -1.2970     0.5130    -0.5120 ca         1 MKU      -0.255600
      8 CAY         -0.3180    -0.5650    -0.6290 c          1 MKU       0.635300
      9 OAF         -0.6200    -1.7370    -0.9010 o          1 MKU      -0.603100
     10 CBB          1.0650    -0.2060    -0.4100 ca         1 MKU      -0.392600
     11 CAT          2.1000    -1.1700    -0.4980 ca         1 MKU       0.287100
     12 OAH          1.8170    -2.4370    -0.7790 oh         1 MKU      -0.548100
     13 CAV          3.4330    -0.8250    -0.3010 ca         1 MKU      -0.265300
     14 CAI          4.5280    -1.8430    -0.4360 c6         1 MKU      -0.002100
     15 CAJ          5.8670    -1.1470    -0.6190 c6         1 MKU      -0.106400
     16 CBD          6.0490    -0.0190     0.3880 c6         1 MKU       0.192000
     17 CAD          7.3200     0.7620     0.1100 c3         1 MKU      -0.100600
     18 CAE          6.0300    -0.5270     1.8250 c3         1 MKU      -0.100600
     19 OAP          4.9750     0.9360     0.2280 os         1 MKU      -0.344100
     20 CAU          3.7290     0.5070     0.0140 ca         1 MKU       0.260100
     21 CAM          2.7340     1.4830     0.1110 ca         1 MKU      -0.241000
     22 CBA          1.4290     1.1080    -0.1070 ca         1 MKU       0.243100
     23 OAQ          0.4890     2.0650    -0.0110 os         1 MKU      -0.213200
     24 CAZ         -0.8170     1.7960    -0.2070 ca         1 MKU       0.211100
     25 CAL         -1.6450     2.9020    -0.1030 ca         1 MKU      -0.197000
     26 CAS         -2.9990     2.7320    -0.2910 ca         1 MKU       0.196100
     27 OAG         -3.8000     3.7960    -0.2150 oh         1 MKU      -0.520100
     28 CAX         -3.5200     1.4520    -0.5660 ca         1 MKU      -0.046900
     29 OAO         -4.8720     1.3800    -0.7380 os         1 MKU      -0.366100
     30 CAA         -5.6040     1.0780     0.4530 c3         1 MKU       0.131900
     31 H1          -5.9330    -1.8410    -1.0820 hc         1 MKU       0.038700
     32 H2          -6.1720    -3.5140    -0.5910 hc         1 MKU       0.038700
     33 H3          -6.7150    -2.2180     0.4500 hc         1 MKU       0.038700
     34 H4          -4.8350    -4.4620     1.4460 hc         1 MKU       0.038700
     35 H5          -3.6230    -3.4300     2.2130 hc         1 MKU       0.038700
     36 H6          -5.3460    -3.1080     2.4330 hc         1 MKU       0.038700
     37 H7          -2.6180    -1.9990     0.7540 ha         1 MKU       0.179000
     38 H8          -2.7260    -1.4760    -1.8070 hc         1 MKU       0.074700
     39 H9          -4.2970    -0.7790    -1.5250 hc         1 MKU       0.074700
     40 H10          0.8350    -2.4940    -0.8960 ho         1 MKU       0.524000
     41 H11          4.5530    -2.4950     0.4420 hc         1 MKU       0.058700
     42 H12          4.3390    -2.4970    -1.2890 hc         1 MKU       0.058700
     43 H13          6.6860    -1.8600    -0.5060 hc         1 MKU       0.056700
     44 H14          5.9390    -0.7370    -1.6310 hc         1 MKU       0.056700
     45 H15          7.3280     1.1570    -0.9070 hc         1 MKU       0.049033
     46 H16          7.4330     1.5940     0.8070 hc         1 MKU       0.049033
     47 H17          8.1870     0.1110     0.2240 hc         1 MKU       0.049033
     48 H18          6.8190    -1.2660     1.9710 hc         1 MKU       0.049033
     49 H19          6.2040     0.2910     2.5260 hc         1 MKU       0.049033
     50 H20          5.0820    -0.9980     2.0890 hc         1 MKU       0.049033
     51 H21          2.9880     2.5060     0.3540 ha         1 MKU       0.150000
     52 H22         -1.2320     3.8790     0.1150 ha         1 MKU       0.154000
     53 H23         -4.6910     3.5590    -0.5050 ho         1 MKU       0.488000
     54 H24         -6.6580     1.0770     0.1840 h1         1 MKU       0.043367
     55 H25         -5.3320     0.0970     0.8470 h1         1 MKU       0.043367
     56 H26         -5.4370     1.8270     1.2300 h1         1 MKU       0.043367
@<TRIPOS>BOND
     1     1     2 1   
     2     1    31 1   
     3     1    32 1   
     4     1    33 1   
     5     2     3 1   
     6     2     4 2   
     7     3    34 1   
     8     3    35 1   
     9     3    36 1   
    10     4     5 1   
    11     4    37 1   
    12     5     6 1   
    13     5    38 1   
    14     5    39 1   
    15     6     7 ar  
    16     6    28 ar  
    17     7     8 1   
    18     7    24 ar  
    19     8     9 2   
    20     8    10 1   
    21    10    11 ar  
    22    10    22 ar  
    23    11    12 1   
    24    11    13 ar  
    25    12    40 1   
    26    13    14 1   
    27    13    20 ar  
    28    14    15 1   
    29    14    41 1   
    30    14    42 1   
    31    15    16 1   
    32    15    43 1   
    33    15    44 1   
    34    16    17 1   
    35    16    18 1   
    36    16    19 1   
    37    17    45 1   
    38    17    46 1   
    39    17    47 1   
    40    18    48 1   
    41    18    49 1   
    42    18    50 1   
    43    19    20 1   
    44    20    21 ar  
    45    21    22 ar  
    46    21    51 1   
    47    22    23 1   
    48    23    24 1   
    49    24    25 ar  
    50    25    26 ar  
    51    25    52 1   
    52    26    27 1   
    53    26    28 ar  
    54    27    53 1   
    55    28    29 1   
    56    29    30 1   
    57    30    54 1   
    58    30    55 1   
    59    30    56 1   
@<TRIPOS>SUBSTRUCTURE
     1 MKU         1 TEMP              0 ****  ****    0 ROOT
