@<TRIPOS>MOLECULE
MKV
   10    10     1     0     0
SMALL
abcg2


@<TRIPOS>ATOM
      1 C02          1.0860     0.8910     0.0350 cc         1 MKV      -0.102900
      2 C03         -0.0010     0.0530     0.0030 cd         1 MKV      -0.045900
      3 C05         -1.1480     0.8820    -0.0340 cd         1 MKV      -0.082900
      4 C07         -0.7220     2.1840    -0.0240 cc         1 MKV      -0.144000
      5 N08          0.6350     2.1690     0.0180 na         1 MKV      -0.080000
      6 BR01         2.8810     0.4640     0.0880 br         1 MKV      -0.011100
      7 BR04         0.0350    -1.7970     0.0070 br         1 MKV      -0.022100
      8 BR06        -2.9110     0.3040    -0.0860 br         1 MKV      -0.040100
      9 H1          -1.2780     3.1060    -0.0430 h4         1 MKV       0.166000
     10 H2           1.2140     2.9940     0.0350 hn         1 MKV       0.363000
@<TRIPOS>BOND
     1     1     2 2   
     2     1     5 1   
     3     1     6 1   
     4     2     3 1   
     5     2     7 1   
     6     3     4 2   
     7     3     8 1   
     8     4     5 1   
     9     4     9 1   
    10     5    10 1   
@<TRIPOS>SUBSTRUCTURE
     1 MKV         1 TEMP              0 ****  ****    0 ROOT
