@<TRIPOS>MOLECULE
MKV
   10    10     1     0     0
SMALL
No Charge or Current Charge


@<TRIPOS>ATOM
      1 C02          1.1130     0.8860     0.0350 cc         1 MKV      -0.102900
      2 C03          0.0120     0.0750     0.0030 cd         1 MKV      -0.045900
      3 C05         -1.1390     0.8920    -0.0340 cd         1 MKV      -0.082900
      4 C07         -0.7560     2.2070    -0.0240 cc         1 MKV      -0.144000
      5 N08          0.6420     2.1980     0.0180 na         1 MKV      -0.080000
      6 Br01         2.9320     0.3900     0.0910 br         1 MKV      -0.011100
      7 Br04         0.0180    -1.8150     0.0070 br         1 MKV      -0.022100
      8 Br06        -2.9210     0.2730    -0.0870 br         1 MKV      -0.040100
      9 H1          -1.3410     3.1200    -0.0440 h4         1 MKV       0.166000
     10 H2           1.2310     3.0260     0.0340 hn         1 MKV       0.363000
@<TRIPOS>BOND
     1     1     2 2   
     2     1     5 1   
     3     1     6 1   
     4     2     3 1   
     5     2     7 1   
     6     3     4 2   
     7     3     8 1   
     8     4     5 1   
     9     4     9 1   
    10     5    10 1   
@<TRIPOS>SUBSTRUCTURE
     1 MKV         1 TEMP              0 ****  ****    0 ROOT
