@<TRIPOS>MOLECULE
MKW
   57    62     1     0     0
SMALL
No Charge or Current Charge


@<TRIPOS>ATOM
      1 C1          -6.7170     2.0040     0.9820 c3         1 MKW      -0.152400
      2 C2          -6.3850     0.9710    -0.1140 c          1 MKW       0.603100
      3 C3          -3.9610     1.8000    -0.2540 c6         1 MKW       0.094000
      4 C7           0.3340     0.4940    -0.3670 ca         1 MKW      -0.097000
      5 C8           1.6790     0.8460    -0.1860 ca         1 MKW       0.134000
      6 C9           2.5930    -0.0810     0.3660 cp         1 MKW      -0.025000
      7 C10          2.1220    -1.3690     0.7010 ca         1 MKW      -0.059000
      8 C11          0.7780    -1.7430     0.5250 ca         1 MKW       0.240000
      9 C12         -0.8900    -3.3600     0.6570 ca         1 MKW       0.356900
     10 C13         -1.8710    -2.4860     0.1580 ca         1 MKW       0.045100
     11 C14         -4.2070    -2.0130    -0.4200 c6         1 MKW       0.125600
     12 C15         -3.6380    -0.9030    -1.3440 c6         1 MKW       0.123500
     13 C16         -4.7320     0.0940    -1.8300 c6         1 MKW       0.097000
     14 C19          5.8460     1.3720     1.8000 ca         1 MKW      -0.102000
     15 C20          6.7940     0.8610     0.8900 ca         1 MKW      -0.071000
     16 C21          6.3540     0.0500    -0.1650 ca         1 MKW      -0.071000
     17 C22          5.0150    -0.2320    -0.3040 ca         1 MKW      -0.129000
     18 Cl           2.1980     2.4540    -0.6880 cl         1 MKW      -0.191000
     19 C17          4.0280     0.2630     0.5730 cp         1 MKW       0.004000
     20 C23          4.9280    -1.0610    -1.4590 cc         1 MKW      -0.196100
     21 N3           6.2260    -1.2190    -1.9300 na         1 MKW       0.015500
     22 N4           7.1590    -0.5350    -1.1440 nc         1 MKW      -0.283400
     23 C18          4.4680     1.0780     1.6550 ca         1 MKW      -0.062300
     24 C6          -0.1350    -0.7880     0.0020 ca         1 MKW      -0.035000
     25 N2           0.4000    -3.0000     0.8490 nb         1 MKW      -0.638000
     26 C5          -1.4950    -1.1570    -0.1630 ca         1 MKW       0.184000
     27 O1          -3.1690    -2.9520    -0.0410 os         1 MKW      -0.326100
     28 N1          -2.4850    -0.2500    -0.6340 nh         1 MKW      -0.742400
     29 C4          -2.9030     0.8280     0.3280 c6         1 MKW       0.150800
     30 N           -5.1340     1.0480    -0.7670 n          1 MKW      -0.415800
     31 O           -7.2000     0.1160    -0.4390 o          1 MKW      -0.596100
     32 C           -8.1610     1.9650     1.5340 c3         1 MKW      -0.078100
     33 H1          -5.9860     1.8830     1.7890 hc         1 MKW       0.056700
     34 H2          -6.4610     3.0000     0.6020 hc         1 MKW       0.056700
     35 H3          -4.2400     2.5350     0.5110 h1         1 MKW       0.063200
     36 H4          -3.5080     2.3630    -1.0830 h1         1 MKW       0.063200
     37 H5          -0.3370     1.2220    -0.8140 ha         1 MKW       0.140000
     38 H6           2.8210    -2.0950     1.1070 ha         1 MKW       0.142000
     39 H7          -1.1470    -4.3880     0.9110 h4         1 MKW       0.036100
     40 H8          -4.6180    -1.5570     0.4910 h1         1 MKW       0.071200
     41 H9          -5.0190    -2.5580    -0.9220 h1         1 MKW       0.071200
     42 H10         -3.2580    -1.4040    -2.2470 h1         1 MKW       0.086700
     43 H11         -4.3280     0.6690    -2.6750 h1         1 MKW       0.075700
     44 H12         -5.5980    -0.4610    -2.2180 h1         1 MKW       0.075700
     45 H14          7.8500     1.0900     1.0080 ha         1 MKW       0.127000
     46 H15          2.9370     2.4970     2.2670 hc         1 MKW       0.043367
     47 H16          2.7480     0.8850     2.9790 hc         1 MKW       0.043367
     48 H17          3.9930     1.9770     3.5870 hc         1 MKW       0.043367
     49 H18          4.0870    -1.5280    -1.9620 h4         1 MKW       0.232000
     50 H19          6.5200    -1.7550    -2.7440 hn         1 MKW       0.370000
     51 H20         -2.0340     1.4190     0.6500 h1         1 MKW       0.051200
     52 H21         -3.3230     0.3670     1.2340 h1         1 MKW       0.051200
     53 H22         -8.2980     2.7370     2.3010 hc         1 MKW       0.044033
     54 H23         -8.8870     2.1470     0.7320 hc         1 MKW       0.044033
     55 H24         -8.3780     0.9900     1.9860 hc         1 MKW       0.044033
     56 H13          6.1860     1.9980     2.6220 ha         1 MKW       0.111000
     57 C24          3.4840     1.6390     2.6770 c3         1 MKW      -0.047800
@<TRIPOS>BOND
     1     1     2 1   
     2     1    32 1   
     3     1    33 1   
     4     1    34 1   
     5     2    30 1   
     6     2    31 2   
     7     3    29 1   
     8     3    30 1   
     9     3    35 1   
    10     3    36 1   
    11     4     5 ar  
    12     4    24 ar  
    13     4    37 1   
    14     5     6 ar  
    15     5    18 1   
    16     6     7 ar  
    17     6    19 1   
    18     7     8 ar  
    19     7    38 1   
    20     8    24 ar  
    21     8    25 ar  
    22     9    10 ar  
    23     9    25 ar  
    24     9    39 1   
    25    10    26 ar  
    26    10    27 1   
    27    11    12 1   
    28    11    27 1   
    29    11    40 1   
    30    11    41 1   
    31    12    13 1   
    32    12    28 1   
    33    12    42 1   
    34    13    30 1   
    35    13    43 1   
    36    13    44 1   
    37    14    15 ar  
    38    14    23 ar  
    39    14    56 1   
    40    15    16 ar  
    41    15    45 1   
    42    16    17 ar  
    43    16    22 2   
    44    17    19 ar  
    45    17    20 2   
    46    19    23 ar  
    47    20    21 1   
    48    20    49 1   
    49    21    22 1   
    50    21    50 1   
    51    23    57 1   
    52    24    26 ar  
    53    26    28 1   
    54    28    29 1   
    55    29    51 1   
    56    29    52 1   
    57    32    53 1   
    58    32    54 1   
    59    32    55 1   
    60    46    57 1   
    61    47    57 1   
    62    48    57 1   
@<TRIPOS>SUBSTRUCTURE
     1 MKW         1 TEMP              0 ****  ****    0 ROOT
