@<TRIPOS>MOLECULE
MKW
   57    62     1     0     0
SMALL
bcc


@<TRIPOS>ATOM
      1 C1          -6.5160     1.9030     0.9910 c3         1 MKW      -0.152400
      2 C2          -6.2660     0.9600    -0.1700 c          1 MKW       0.670100
      3 C3          -3.9210     1.8010    -0.3060 c6         1 MKW       0.094000
      4 C7           0.2950     0.5490    -0.3970 ca         1 MKW      -0.115000
      5 C8           1.6150     0.8470    -0.1980 ca         1 MKW       0.042400
      6 C9           2.5190    -0.0730     0.3810 cp         1 MKW      -0.025000
      7 C10          2.0410    -1.3180     0.7060 ca         1 MKW      -0.142300
      8 C11          0.6910    -1.6730     0.5090 ca         1 MKW       0.370600
      9 C12         -0.9400    -3.2630     0.6150 ca         1 MKW       0.422200
     10 C13         -1.9240    -2.3710     0.1260 ca         1 MKW      -0.020200
     11 C14         -4.1880    -1.9250    -0.3590 c6         1 MKW       0.102400
     12 C15         -3.6250    -0.8750    -1.3070 c6         1 MKW       0.123500
     13 C16         -4.6740     0.1060    -1.8140 c6         1 MKW       0.097000
     14 C19          5.7740     1.3330     1.7660 ca         1 MKW      -0.120000
     15 C20          6.7270     0.8340     0.9270 ca         1 MKW      -0.089000
     16 C21          6.2960     0.0070    -0.1340 ca         1 MKW      -0.071000
     17 C22          4.9120    -0.2760    -0.2910 ca         1 MKW      -0.129000
     18 CL           2.2050     2.3950    -0.7020 cl         1 MKW      -0.099400
     19 C17          3.9450     0.2600     0.5940 cp         1 MKW       0.004000
     20 C23          4.8600    -1.0980    -1.4130 cc         1 MKW      -0.146100
     21 N3           6.1280    -1.2360    -1.8100 na         1 MKW       0.065800
     22 N4           7.0260    -0.5950    -1.0780 nc         1 MKW      -0.283400
     23 C18          4.3780     1.0630     1.6210 ca         1 MKW      -0.062300
     24 C6          -0.2030    -0.7130    -0.0190 ca         1 MKW      -0.100300
     25 N2           0.3030    -2.9340     0.8170 nb         1 MKW      -0.638000
     26 C5          -1.5660    -1.0770    -0.1830 ca         1 MKW       0.045600
     27 O1          -3.1700    -2.8570    -0.0010 os         1 MKW      -0.302900
     28 N1          -2.5110    -0.1690    -0.6770 nh         1 MKW      -0.604000
     29 C4          -2.9070     0.8510     0.3010 c6         1 MKW       0.150800
     30 N           -5.0600     1.0460    -0.7860 n          1 MKW      -0.482800
     31 O           -7.1190     0.1660    -0.5410 o          1 MKW      -0.596100
     32 C           -7.9110     1.7690     1.5730 c3         1 MKW      -0.078100
     33 H1          -5.7700     1.7150     1.7700 hc         1 MKW       0.056700
     34 H2          -6.3440     2.9320     0.6630 hc         1 MKW       0.056700
     35 H3          -4.2100     2.5470     0.4290 h1         1 MKW       0.063200
     36 H4          -3.4760     2.3350    -1.1510 h1         1 MKW       0.063200
     37 H5          -0.3590     1.2690    -0.8710 ha         1 MKW       0.158000
     38 H6           2.7060    -2.0590     1.1310 ha         1 MKW       0.160000
     39 H7          -1.2390    -4.2770     0.8610 h4         1 MKW       0.036100
     40 H8          -4.5950    -1.4680     0.5490 h1         1 MKW       0.071200
     41 H9          -4.9800    -2.5040    -0.8330 h1         1 MKW       0.071200
     42 H10         -3.2280    -1.3920    -2.1870 h1         1 MKW       0.086700
     43 H11         -4.2490     0.6640    -2.6520 h1         1 MKW       0.075700
     44 H12         -5.5430    -0.4330    -2.1820 h1         1 MKW       0.075700
     45 H14          7.7760     1.0580     1.0710 ha         1 MKW       0.145000
     46 H15          3.0980     2.6750     2.2470 hc         1 MKW       0.043367
     47 H16          2.5290     1.0880     2.7440 hc         1 MKW       0.043367
     48 H17          3.8950     1.8360     3.5670 hc         1 MKW       0.043367
     49 H18          4.0440    -1.5720    -1.9320 h4         1 MKW       0.182000
     50 H19          6.4380    -1.7760    -2.6040 hn         1 MKW       0.319700
     51 H20         -2.0250     1.4090     0.6130 h1         1 MKW       0.051200
     52 H21         -3.3360     0.4010     1.2080 h1         1 MKW       0.051200
     53 H22         -8.0370     2.4740     2.3940 hc         1 MKW       0.044033
     54 H23         -8.6800     1.9840     0.8320 hc         1 MKW       0.044033
     55 H24         -8.0910     0.7690     1.9640 hc         1 MKW       0.044033
     56 H13          6.0800     1.9620     2.5940 ha         1 MKW       0.129000
     57 C24          3.4240     1.6910     2.5950 c3         1 MKW      -0.047800
@<TRIPOS>BOND
     1     1     2 1   
     2     1    32 1   
     3     1    33 1   
     4     1    34 1   
     5     2    30 1   
     6     2    31 2   
     7     3    29 1   
     8     3    30 1   
     9     3    35 1   
    10     3    36 1   
    11     4     5 ar  
    12     4    24 ar  
    13     4    37 1   
    14     5     6 ar  
    15     5    18 1   
    16     6     7 ar  
    17     6    19 1   
    18     7     8 ar  
    19     7    38 1   
    20     8    24 ar  
    21     8    25 ar  
    22     9    10 ar  
    23     9    25 ar  
    24     9    39 1   
    25    10    26 ar  
    26    10    27 1   
    27    11    12 1   
    28    11    27 1   
    29    11    40 1   
    30    11    41 1   
    31    12    13 1   
    32    12    28 1   
    33    12    42 1   
    34    13    30 1   
    35    13    43 1   
    36    13    44 1   
    37    14    15 ar  
    38    14    23 ar  
    39    14    56 1   
    40    15    16 ar  
    41    15    45 1   
    42    16    17 ar  
    43    16    22 2   
    44    17    19 ar  
    45    17    20 2   
    46    19    23 ar  
    47    20    21 1   
    48    20    49 1   
    49    21    22 1   
    50    21    50 1   
    51    23    57 1   
    52    24    26 ar  
    53    26    28 1   
    54    28    29 1   
    55    29    51 1   
    56    29    52 1   
    57    32    53 1   
    58    32    54 1   
    59    32    55 1   
    60    46    57 1   
    61    47    57 1   
    62    48    57 1   
@<TRIPOS>SUBSTRUCTURE
     1 MKW         1 TEMP              0 ****  ****    0 ROOT
