@<TRIPOS>MOLECULE
MKY
   34    35     1     0     0
SMALL
abcg2


@<TRIPOS>ATOM
      1 C1           5.2100    -2.7610    -0.1670 c3         1 MKY      -0.098100
      2 C2           3.9240    -2.3000    -0.8040 c3         1 MKY       0.167600
      3 O3           3.1010    -1.7210     0.2270 os         1 MKY      -0.452100
      4 C4           1.9380    -1.2090    -0.1230 c          1 MKY       0.573100
      5 O5           1.5050    -1.1720    -1.2440 o          1 MKY      -0.470000
      6 C6           1.2020    -0.6720     1.0900 c3         1 MKY       0.017600
      7 C8          -3.7740    -1.6570     0.0510 ca         1 MKY       0.125100
      8 C9          -2.7640    -2.5090     0.5030 ca         1 MKY      -0.116000
      9 C10         -1.4840    -2.0350     0.7390 ca         1 MKY      -0.085000
     10 C11         -1.2150    -0.6920     0.5200 ca         1 MKY      -0.018200
     11 N12         -0.0160    -0.0210     0.7060 na         1 MKY      -0.195600
     12 C13         -0.0180     1.2900     0.3440 cc         1 MKY       0.592700
     13 N14          1.0540     1.9910     0.4030 nf         1 MKY      -0.803000
     14 C15          1.0130     3.3240     0.0500 cf         1 MKY       0.860200
     15 N16          2.2310     3.9260     0.1760 nv         1 MKY      -1.058200
     16 N17         -0.0820     3.8870    -0.3050 n2         1 MKY      -0.924100
     17 S18         -1.6320     1.7880    -0.1680 ss         1 MKY       0.133800
     18 C19         -2.2190     0.1520     0.0630 ca         1 MKY      -0.184000
     19 C20         -3.5030    -0.3110    -0.1730 ca         1 MKY      -0.146000
     20 H1           5.7600    -1.9310     0.2770 hc         1 MKY       0.047700
     21 H1A          5.0310    -3.5130     0.6020 hc         1 MKY       0.047700
     22 H1B          5.8420    -3.2090    -0.9320 hc         1 MKY       0.047700
     23 H2           4.1140    -1.5540    -1.5780 h1         1 MKY       0.049700
     24 H2A          3.3910    -3.1350    -1.2620 h1         1 MKY       0.049700
     25 H6           0.9860    -1.4860     1.7840 h1         1 MKY       0.097700
     26 H6A          1.8380     0.0340     1.6230 h1         1 MKY       0.097700
     27 HO7         -5.6060    -1.5240    -0.4810 ho         1 MKY       0.466000
     28 H9          -2.9850    -3.5560     0.6680 ha         1 MKY       0.132000
     29 H10         -0.7190    -2.7200     1.0810 ha         1 MKY       0.121000
     30 HN16         3.0370     3.3230     0.1990 hn         1 MKY       0.469000
     31 HN1A         2.3760     4.8010    -0.2990 hn         1 MKY       0.469000
     32 HN17         0.0350     4.8650    -0.5470 hn         1 MKY       0.392400
     33 H20         -4.2760     0.3610    -0.5280 ha         1 MKY       0.125000
     34 O7          -4.9950    -2.1940    -0.1570 oh         1 MKY      -0.533100
@<TRIPOS>BOND
     1     1     2 1   
     2     1    20 1   
     3     1    21 1   
     4     1    22 1   
     5     2     3 1   
     6     2    23 1   
     7     2    24 1   
     8     3     4 1   
     9     4     5 2   
    10     4     6 1   
    11     6    11 1   
    12     6    25 1   
    13     6    26 1   
    14     7     8 ar  
    15     7    19 ar  
    16     7    34 1   
    17     8     9 ar  
    18     8    28 1   
    19     9    10 ar  
    20     9    29 1   
    21    10    11 1   
    22    10    18 ar  
    23    11    12 1   
    24    12    13 2   
    25    12    17 1   
    26    13    14 1   
    27    14    15 1   
    28    14    16 2   
    29    15    30 1   
    30    15    31 1   
    31    16    32 1   
    32    17    18 1   
    33    18    19 ar  
    34    19    33 1   
    35    27    34 1   
@<TRIPOS>SUBSTRUCTURE
     1 MKY         1 TEMP              0 ****  ****    0 ROOT
