@<TRIPOS>MOLECULE
MKY
   34    35     1     0     0
SMALL
No Charge or Current Charge


@<TRIPOS>ATOM
      1 C1           5.0990    -3.1850    -0.2300 c3         1 MKY      -0.098100
      2 C2           3.9390    -2.4410    -0.9090 c3         1 MKY       0.167600
      3 O3           3.1530    -1.8300     0.1280 os         1 MKY      -0.452100
      4 C4           2.0500    -1.1030    -0.2410 c          1 MKY       0.573100
      5 O5           1.6840    -0.9510    -1.4010 o          1 MKY      -0.470000
      6 C6           1.3240    -0.5370     0.9860 c3         1 MKY       0.017600
      7 C8          -3.6720    -1.7510     0.1320 ca         1 MKY       0.125100
      8 C9          -2.5540    -2.5700     0.3860 ca         1 MKY      -0.116000
      9 C10         -1.2800    -1.9990     0.5790 ca         1 MKY      -0.085000
     10 C11         -1.1420    -0.5980     0.5190 ca         1 MKY      -0.018200
     11 N12          0.0320     0.1290     0.6820 na         1 MKY      -0.195600
     12 C13         -0.1540     1.5050     0.5060 cc         1 MKY       0.592700
     13 N14          0.7890     2.3900     0.6520 nf         1 MKY      -0.803000
     14 C15          0.7400     3.5690     0.0050 cf         1 MKY       0.860200
     15 N16          1.4770     4.4240     0.6140 nv         1 MKY      -1.058200
     16 N17          0.6540     3.5740    -1.2450 n2         1 MKY      -0.924100
     17 S18         -1.8660     1.9340     0.2040 ss         1 MKY       0.133800
     18 C19         -2.2440     0.1990     0.2630 ca         1 MKY      -0.184000
     19 C20         -3.5210    -0.3540     0.0670 ca         1 MKY      -0.146000
     20 H1           5.7210    -2.4890     0.3450 hc         1 MKY       0.047700
     21 H1A          4.7170    -3.9570     0.4490 hc         1 MKY       0.047700
     22 H1B          5.7310    -3.6700    -0.9820 hc         1 MKY       0.047700
     23 H2           4.3420    -1.6820    -1.5950 h1         1 MKY       0.049700
     24 H2A          3.3380    -3.1530    -1.4910 h1         1 MKY       0.049700
     25 H6           1.1690    -1.3540     1.6990 h1         1 MKY       0.097700
     26 H6A          2.0060     0.1770     1.4620 h1         1 MKY       0.097700
     27 HO7         -5.5510    -1.6070    -0.2180 ho         1 MKY       0.466000
     28 H9          -2.6750    -3.6500     0.4310 ha         1 MKY       0.132000
     29 H10         -0.4290    -2.6480     0.7690 ha         1 MKY       0.121000
     30 HN16         1.8730     4.0390     1.4580 hn         1 MKY       0.469000
     31 HN1A         2.1390     4.9240     0.0420 hn         1 MKY       0.469000
     32 HN17         0.6830     4.5550    -1.5390 hn         1 MKY       0.392400
     33 H20         -4.3730     0.2930    -0.1320 ha         1 MKY       0.125000
     34 O7          -4.8970    -2.3200    -0.0540 oh         1 MKY      -0.533100
@<TRIPOS>BOND
     1     1     2 1   
     2     1    20 1   
     3     1    21 1   
     4     1    22 1   
     5     2     3 1   
     6     2    23 1   
     7     2    24 1   
     8     3     4 1   
     9     4     5 2   
    10     4     6 1   
    11     6    11 1   
    12     6    25 1   
    13     6    26 1   
    14     7     8 ar  
    15     7    19 ar  
    16     7    34 1   
    17     8     9 ar  
    18     8    28 1   
    19     9    10 ar  
    20     9    29 1   
    21    10    11 1   
    22    10    18 ar  
    23    11    12 1   
    24    12    13 2   
    25    12    17 1   
    26    13    14 1   
    27    14    15 1   
    28    14    16 2   
    29    15    30 1   
    30    15    31 1   
    31    16    32 1   
    32    17    18 1   
    33    18    19 ar  
    34    19    33 1   
    35    27    34 1   
@<TRIPOS>SUBSTRUCTURE
     1 MKY         1 TEMP              0 ****  ****    0 ROOT
