@<TRIPOS>MOLECULE
MKZ
   54    58     1     0     0
SMALL
abcg2


@<TRIPOS>ATOM
      1 C1           6.4890     1.9940    -0.9990 c3         1 MKZ      -0.152400
      2 C2           6.4360     0.7980    -0.0660 c          1 MKZ       0.607100
      3 C3           3.9490     0.9680    -0.0470 c6         1 MKZ       0.090500
      4 C7          -0.6600    -2.2560     0.0880 ca         1 MKZ       0.039000
      5 C8          -1.9720    -1.7420     0.0710 ca         1 MKZ      -0.079000
      6 C9          -2.2280    -0.4180     0.3260 cp         1 MKZ       0.001000
      7 C10         -3.6170     0.0930     0.2890 cp         1 MKZ       0.020000
      8 C11         -4.3630     0.3130     1.4330 ca         1 MKZ      -0.079300
      9 C12         -3.7990     0.0720     2.8040 c3         1 MKZ      -0.046800
     10 C13         -5.6880     0.7980     1.3120 ca         1 MKZ      -0.076000
     11 C14         -6.2860     1.0710     0.1040 ca         1 MKZ      -0.119000
     12 C15         -5.5180     0.8410    -1.0410 ca         1 MKZ      -0.043200
     13 C16         -3.7830     0.2620    -2.3140 cc         1 MKZ       0.353800
     14 C19          0.1540    -0.0290     0.6100 ca         1 MKZ      -0.068000
     15 C20          0.4180    -1.3720     0.2910 ca         1 MKZ      -0.154000
     16 C21          4.1270    -1.8240     0.5870 c6         1 MKZ       0.190800
     17 C22          5.0640    -0.7890     1.1900 c6         1 MKZ       0.090500
     18 C18         -1.1360     0.4280     0.6200 ca         1 MKZ       0.112000
     19 C17         -4.2030     0.3570    -0.9600 ca         1 MKZ      -0.212900
     20 N5          -4.7400     0.6440    -3.1230 nd         1 MKZ      -0.513100
     21 N4          -5.7770     0.9910    -2.3610 na         1 MKZ      -0.061400
     22 N3          -0.4770    -3.5950    -0.0410 nb         1 MKZ      -0.189000
     23 C6           0.7490    -4.0130     0.0840 ca         1 MKZ       0.163900
     24 N2           1.8580    -3.2690     0.2060 nb         1 MKZ      -0.268000
     25 C5           1.7300    -1.9600     0.2400 ca         1 MKZ       0.392900
     26 N1           2.8540    -1.1940     0.2750 nh         1 MKZ      -0.773300
     27 C4           3.0240    -0.0740    -0.6470 c6         1 MKZ       0.190800
     28 N            5.2120     0.3590     0.3160 n          1 MKZ      -0.421800
     29 O            7.4620     0.2530     0.3170 o          1 MKZ      -0.596100
     30 C            7.9080     2.4150    -1.3410 c3         1 MKZ      -0.077100
     31 H7           4.0900     1.7640    -0.7710 h1         1 MKZ       0.062450
     32 H6           3.4850     1.4110     0.8420 h1         1 MKZ       0.062450
     33 H11         -2.7900    -2.4270    -0.1150 ha         1 MKZ       0.147000
     34 H13         -3.2960     0.9630     3.1840 hc         1 MKZ       0.045700
     35 H14         -4.5880    -0.1790     3.5120 hc         1 MKZ       0.045700
     36 H12         -3.0730    -0.7400     2.8150 hc         1 MKZ       0.045700
     37 H15         -6.2570     0.9560     2.2200 ha         1 MKZ       0.115000
     38 H16         -7.3010     1.4410     0.0500 ha         1 MKZ       0.122000
     39 H17         -2.8330    -0.0710    -2.7020 h4         1 MKZ       0.052800
     40 H18          0.9570     0.6430     0.8810 ha         1 MKZ       0.135000
     41 H19          4.5770    -2.2680    -0.3090 h1         1 MKZ       0.060950
     42 H20          3.9720    -2.6220     1.3090 h1         1 MKZ       0.060950
     43 H22          4.6680    -0.4620     2.1570 h1         1 MKZ       0.062450
     44 H21          6.0360    -1.2430     1.3640 h1         1 MKZ       0.062450
     45 H           -6.6280     1.3140    -2.7900 hn         1 MKZ       0.376000
     46 H10          0.9100    -5.0850     0.0550 h5         1 MKZ       0.049100
     47 H9           2.0700     0.3800    -0.8990 h1         1 MKZ       0.060950
     48 H8           3.4570    -0.4440    -1.5840 h1         1 MKZ       0.060950
     49 H1           8.4630     1.6140    -1.8270 hc         1 MKZ       0.043367
     50 H3           7.8830     3.2640    -2.0240 hc         1 MKZ       0.043367
     51 H2           8.4650     2.7200    -0.4560 hc         1 MKZ       0.043367
     52 H4           5.9460     1.7530    -1.9170 hc         1 MKZ       0.054700
     53 H5           5.9530     2.8340    -0.5500 hc         1 MKZ       0.054700
     54 CL          -1.4360     2.0860     1.0090 cl         1 MKZ      -0.187000
@<TRIPOS>BOND
     1     1     2 1   
     2     1    30 1   
     3     1    52 1   
     4     1    53 1   
     5     2    28 1   
     6     2    29 2   
     7     3    27 1   
     8     3    28 1   
     9     3    31 1   
    10     3    32 1   
    11     4     5 ar  
    12     4    15 ar  
    13     4    22 ar  
    14     5     6 ar  
    15     5    33 1   
    16     6     7 1   
    17     6    18 ar  
    18     7     8 ar  
    19     7    19 ar  
    20     8     9 1   
    21     8    10 ar  
    22     9    34 1   
    23     9    35 1   
    24     9    36 1   
    25    10    11 ar  
    26    10    37 1   
    27    11    12 ar  
    28    11    38 1   
    29    12    19 ar  
    30    12    21 1   
    31    13    19 1   
    32    13    20 2   
    33    13    39 1   
    34    14    15 ar  
    35    14    18 ar  
    36    14    40 1   
    37    15    25 ar  
    38    16    17 1   
    39    16    26 1   
    40    16    41 1   
    41    16    42 1   
    42    17    28 1   
    43    17    43 1   
    44    17    44 1   
    45    18    54 1   
    46    20    21 1   
    47    21    45 1   
    48    22    23 ar  
    49    23    24 ar  
    50    23    46 1   
    51    24    25 ar  
    52    25    26 1   
    53    26    27 1   
    54    27    47 1   
    55    27    48 1   
    56    30    49 1   
    57    30    50 1   
    58    30    51 1   
@<TRIPOS>SUBSTRUCTURE
     1 MKZ         1 TEMP              0 ****  ****    0 ROOT
