@<TRIPOS>MOLECULE
MKZ
   54    58     1     0     0
SMALL
No Charge or Current Charge


@<TRIPOS>ATOM
      1 C1           6.6750     2.1510    -0.8080 c3         1 MKZ      -0.152400
      2 C2           6.3890     1.0830     0.2690 c          1 MKZ       0.607100
      3 C3           4.1550     0.5520    -0.8130 c6         1 MKZ       0.090500
      4 C7          -0.7960    -2.3750    -0.0030 ca         1 MKZ       0.039000
      5 C8          -2.0760    -1.7980     0.0820 ca         1 MKZ      -0.079000
      6 C9          -2.2510    -0.4070     0.2580 cp         1 MKZ       0.001000
      7 C10         -3.6250     0.1620     0.3420 cp         1 MKZ       0.020000
      8 C11         -4.2300     0.5250     1.5830 ca         1 MKZ      -0.079300
      9 C12         -3.4900     0.3350     2.9030 c3         1 MKZ      -0.046800
     10 C13         -5.5430     1.0670     1.6040 ca         1 MKZ      -0.076000
     11 C14         -6.2690     1.2470     0.4080 ca         1 MKZ      -0.119000
     12 C15         -5.6500     0.8720    -0.7880 ca         1 MKZ      -0.043200
     13 C16         -4.1300     0.1110    -2.2220 cc         1 MKZ       0.353800
     14 C19          0.1820    -0.1470     0.2600 ca         1 MKZ      -0.068000
     15 C20          0.3430    -1.5380     0.0790 ca         1 MKZ      -0.154000
     16 C21          4.0270    -1.9650     0.6870 c6         1 MKZ       0.190800
     17 C22          5.0080    -0.8400     1.1150 c6         1 MKZ       0.090500
     18 C18         -1.1010     0.4140     0.3440 ca         1 MKZ       0.112000
     19 C17         -4.3930     0.3540    -0.8240 ca         1 MKZ      -0.212900
     20 N5          -5.1670     0.4590    -3.0020 nd         1 MKZ      -0.513100
     21 N4          -6.1110     0.9340    -2.0850 na         1 MKZ      -0.061400
     22 N3          -0.6550    -3.7080    -0.1550 nb         1 MKZ      -0.189000
     23 C6           0.6000    -4.1950    -0.2190 ca         1 MKZ       0.163900
     24 N2           1.7420    -3.4840    -0.1560 nb         1 MKZ      -0.268000
     25 C5           1.6170    -2.1500    -0.0130 ca         1 MKZ       0.392900
     26 N1           2.8190    -1.4080     0.0230 nh         1 MKZ      -0.773300
     27 C4           3.1960    -0.6160    -1.1740 c6         1 MKZ       0.190800
     28 N            5.3170     0.1830     0.0630 n          1 MKZ      -0.421800
     29 O            7.1060     0.9780     1.2570 o          1 MKZ      -0.596100
     30 C            7.9470     3.0040    -0.5940 c3         1 MKZ      -0.077100
     31 H7           4.5100     0.9870    -1.7560 h1         1 MKZ       0.062450
     32 H6           3.5730     1.3300    -0.2980 h1         1 MKZ       0.062450
     33 H11         -2.9540    -2.4370     0.0170 ha         1 MKZ       0.147000
     34 H13         -2.7030     1.0880     3.0240 hc         1 MKZ       0.045700
     35 H14         -4.1650     0.4200     3.7630 hc         1 MKZ       0.045700
     36 H12         -3.0200    -0.6540     2.9560 hc         1 MKZ       0.045700
     37 H15         -6.0010     1.3470     2.5500 ha         1 MKZ       0.115000
     38 H16         -7.2740     1.6620     0.4190 ha         1 MKZ       0.122000
     39 H17         -3.2540    -0.2930    -2.7120 h4         1 MKZ       0.052800
     40 H18          1.0460     0.5070     0.3420 ha         1 MKZ       0.135000
     41 H19          4.5500    -2.6510     0.0040 h1         1 MKZ       0.060950
     42 H20          3.7470    -2.5420     1.5800 h1         1 MKZ       0.060950
     43 H22          4.5770    -0.3200     1.9810 h1         1 MKZ       0.062450
     44 H21          5.9410    -1.3110     1.4560 h1         1 MKZ       0.062450
     45 H           -7.0230     1.2780    -2.3840 hn         1 MKZ       0.376000
     46 H10          0.7000    -5.2720    -0.3380 h5         1 MKZ       0.049100
     47 H9           2.3050    -0.2020    -1.6680 h1         1 MKZ       0.060950
     48 H8           3.6960    -1.2670    -1.9070 h1         1 MKZ       0.060950
     49 H1           8.8410     2.3680    -0.5700 hc         1 MKZ       0.043367
     50 H3           8.0650     3.7270    -1.4100 hc         1 MKZ       0.043367
     51 H2           7.8890     3.5590     0.3500 hc         1 MKZ       0.043367
     52 H4           6.6880     1.6540    -1.7850 hc         1 MKZ       0.054700
     53 H5           5.7870     2.7870    -0.9010 hc         1 MKZ       0.054700
     54 Cl          -1.2410     2.1610     0.5410 cl         1 MKZ      -0.187000
@<TRIPOS>BOND
     1     1     2 1   
     2     1    30 1   
     3     1    52 1   
     4     1    53 1   
     5     2    28 1   
     6     2    29 2   
     7     3    27 1   
     8     3    28 1   
     9     3    31 1   
    10     3    32 1   
    11     4     5 ar  
    12     4    15 ar  
    13     4    22 ar  
    14     5     6 ar  
    15     5    33 1   
    16     6     7 1   
    17     6    18 ar  
    18     7     8 ar  
    19     7    19 ar  
    20     8     9 1   
    21     8    10 ar  
    22     9    34 1   
    23     9    35 1   
    24     9    36 1   
    25    10    11 ar  
    26    10    37 1   
    27    11    12 ar  
    28    11    38 1   
    29    12    19 ar  
    30    12    21 1   
    31    13    19 1   
    32    13    20 2   
    33    13    39 1   
    34    14    15 ar  
    35    14    18 ar  
    36    14    40 1   
    37    15    25 ar  
    38    16    17 1   
    39    16    26 1   
    40    16    41 1   
    41    16    42 1   
    42    17    28 1   
    43    17    43 1   
    44    17    44 1   
    45    18    54 1   
    46    20    21 1   
    47    21    45 1   
    48    22    23 ar  
    49    23    24 ar  
    50    23    46 1   
    51    24    25 ar  
    52    25    26 1   
    53    26    27 1   
    54    27    47 1   
    55    27    48 1   
    56    30    49 1   
    57    30    50 1   
    58    30    51 1   
@<TRIPOS>SUBSTRUCTURE
     1 MKZ         1 TEMP              0 ****  ****    0 ROOT
