@<TRIPOS>MOLECULE
ML0
   59    62     1     0     0
SMALL
No Charge or Current Charge


@<TRIPOS>ATOM
      1 O38        -10.9120     1.3010    -0.2240 o          1 ML0      -0.730000
      2 C36         -9.9880     2.0970    -0.3090 c          1 ML0       0.692000
      3 O37        -10.1520     3.3110    -0.3420 o          1 ML0      -0.730000
      4 C34         -8.5260     1.5290    -0.5290 c3         1 ML0       0.016500
      5 N35         -7.7890     2.0470    -1.7420 n8         1 ML0      -0.999200
      6 C33         -7.6840     1.7200     0.7620 c3         1 ML0      -0.027100
      7 C30         -6.3590     0.9590     0.7620 ca         1 ML0       0.001700
      8 C29         -5.1340     1.6490     0.7100 ca         1 ML0      -0.122000
      9 C28         -3.9170     0.9470     0.7300 ca         1 ML0      -0.073500
     10 C31         -6.3460    -0.4440     0.8440 ca         1 ML0      -0.122000
     11 C32         -5.1310    -1.1480     0.8640 ca         1 ML0      -0.073500
     12 C27         -3.8820    -0.4710     0.8030 cp         1 ML0      -0.208500
     13 C22         -2.5800    -1.2260     0.8260 cp         1 ML0       0.272500
     14 C21         -1.3610    -0.6770     0.3640 ca         1 ML0      -0.288000
     15 N23         -2.5970    -2.4850     1.3050 nb         1 ML0      -0.274000
     16 C24         -1.4350    -3.1450     1.3300 ca         1 ML0       0.422900
     17 N26         -1.4640    -4.4000     1.8270 nv         1 ML0      -1.072900
     18 N25         -0.2400    -2.7120     0.9290 nb         1 ML0      -0.355000
     19 C20         -0.2050    -1.4640     0.4240 ca         1 ML0       0.381300
     20 O16          0.9750    -0.9000    -0.0070 os         1 ML0      -0.452300
     21 C14          2.1410    -1.6990    -0.3430 c3         1 ML0       0.159600
     22 C15          1.9760    -2.3320    -1.7630 c3         1 ML0       0.287000
     23 F19          1.7080    -1.3930    -2.7010 f          1 ML0      -0.110333
     24 F18          3.1100    -2.9700    -2.1350 f          1 ML0      -0.110333
     25 F17          0.9740    -3.2410    -1.7950 f          1 ML0      -0.110333
     26 C11          3.3740    -0.7930    -0.2450 ca         1 ML0      -0.102300
     27 C10          4.5290    -1.2440     0.4210 ca         1 ML0      -0.073500
     28 C9           5.6670    -0.4240     0.5100 ca         1 ML0      -0.104000
     29 C12          3.3770     0.4950    -0.8190 ca         1 ML0      -0.073500
     30 C13          4.5160     1.3130    -0.7290 ca         1 ML0      -0.104000
     31 C8           5.6860     0.8720    -0.0620 cp         1 ML0      -0.030000
     32 C3           6.9000     1.7450     0.0330 cp         1 ML0      -0.004000
     33 C2           7.2590     2.6220    -1.0230 ca         1 ML0      -0.116000
     34 C4           7.7290     1.7230     1.1830 ca         1 ML0      -0.143000
     35 C5           8.8650     2.5430     1.2690 ca         1 ML0       0.169000
     36 F7           9.6360     2.5070     2.3780 f          1 ML0      -0.182000
     37 C6           9.2030     3.4020     0.2140 ca         1 ML0      -0.152000
     38 C1           8.3980     3.4420    -0.9360 ca         1 ML0      -0.086000
     39 H34         -8.6440     0.4460    -0.6760 h1         1 ML0       0.042700
     40 HN35        -8.3490     1.8530    -2.5810 hn         1 ML0       0.384000
     41 HN3A        -7.7830     3.0740    -1.7000 hn         1 ML0       0.384000
     42 H33         -7.5130     2.7920     0.9250 hc         1 ML0       0.053700
     43 H33A        -8.2810     1.3840     1.6180 hc         1 ML0       0.053700
     44 H29         -5.1240     2.7350     0.6570 ha         1 ML0       0.119500
     45 H28         -2.9940     1.5210     0.7030 ha         1 ML0       0.108500
     46 H31         -7.2840    -0.9930     0.8930 ha         1 ML0       0.119500
     47 H32         -5.1650    -2.2340     0.9210 ha         1 ML0       0.108500
     48 H21         -1.3040     0.3240    -0.0460 ha         1 ML0       0.152000
     49 HN26        -2.2830    -4.6850     2.3580 hn         1 ML0       0.495500
     50 HN2A        -0.5820    -4.8390     2.0770 hn         1 ML0       0.495500
     51 H14          2.2690    -2.5170     0.3790 h1         1 ML0       0.115700
     52 H10          4.5530    -2.2370     0.8670 ha         1 ML0       0.127500
     53 H9           6.5490    -0.8060     1.0180 ha         1 ML0       0.117500
     54 H12          2.4930     0.8670    -1.3330 ha         1 ML0       0.127500
     55 H13          4.4830     2.3060    -1.1690 ha         1 ML0       0.117500
     56 H2           6.6570     2.6570    -1.9270 ha         1 ML0       0.122000
     57 H4           7.4850     1.0780     2.0220 ha         1 ML0       0.134000
     58 H6          10.0850     4.0340     0.2890 ha         1 ML0       0.130000
     59 H1           8.6570     4.1040    -1.7600 ha         1 ML0       0.117000
@<TRIPOS>BOND
     1     1     2 1   
     2     2     3 1   
     3     2     4 1   
     4     4     5 1   
     5     4     6 1   
     6     4    39 1   
     7     5    40 1   
     8     5    41 1   
     9     6     7 1   
    10     6    42 1   
    11     6    43 1   
    12     7     8 ar  
    13     7    10 ar  
    14     8     9 ar  
    15     8    44 1   
    16     9    12 ar  
    17     9    45 1   
    18    10    11 ar  
    19    10    46 1   
    20    11    12 ar  
    21    11    47 1   
    22    12    13 1   
    23    13    14 ar  
    24    13    15 ar  
    25    14    19 ar  
    26    14    48 1   
    27    15    16 ar  
    28    16    17 1   
    29    16    18 ar  
    30    17    49 1   
    31    17    50 1   
    32    18    19 ar  
    33    19    20 1   
    34    20    21 1   
    35    21    22 1   
    36    21    26 1   
    37    21    51 1   
    38    22    23 1   
    39    22    24 1   
    40    22    25 1   
    41    26    27 ar  
    42    26    29 ar  
    43    27    28 ar  
    44    27    52 1   
    45    28    31 ar  
    46    28    53 1   
    47    29    30 ar  
    48    29    54 1   
    49    30    31 ar  
    50    30    55 1   
    51    31    32 1   
    52    32    33 ar  
    53    32    34 ar  
    54    33    38 ar  
    55    33    56 1   
    56    34    35 ar  
    57    34    57 1   
    58    35    36 1   
    59    35    37 ar  
    60    37    38 ar  
    61    37    58 1   
    62    38    59 1   
@<TRIPOS>SUBSTRUCTURE
     1 ML0         1 TEMP              0 ****  ****    0 ROOT
