@<TRIPOS>MOLECULE
ML0
   59    62     1     0     0
SMALL
bcc


@<TRIPOS>ATOM
      1 O38        -10.5180     1.3680     0.4600 o          1 ML0      -0.835300
      2 C36         -9.7600     2.0040    -0.3020 c          1 ML0       0.902600
      3 O37        -10.0320     3.0520    -0.9190 o          1 ML0      -0.835300
      4 C34         -8.3270     1.4320    -0.4640 c3         1 ML0       0.016500
      5 N35         -7.5580     1.9730    -1.5690 n8         1 ML0      -0.888800
      6 C33         -7.5660     1.6420     0.8570 c3         1 ML0      -0.027100
      7 C30         -6.2290     0.9660     0.8620 ca         1 ML0       0.001700
      8 C29         -5.0740     1.6320     0.4600 ca         1 ML0      -0.140000
      9 C28         -3.8490     0.9870     0.4310 ca         1 ML0      -0.091500
     10 C31         -6.1130    -0.3700     1.2410 ca         1 ML0      -0.140000
     11 C32         -4.8910    -1.0210     1.2190 ca         1 ML0      -0.091500
     12 C27         -3.7380    -0.3530     0.8030 cp         1 ML0      -0.208500
     13 C22         -2.4440    -1.0620     0.7640 cp         1 ML0       0.600800
     14 C21         -1.3870    -0.6040    -0.0110 ca         1 ML0      -0.436600
     15 N23         -2.3460    -2.1720     1.4960 nb         1 ML0      -0.800000
     16 C24         -1.1890    -2.8270     1.4610 ca         1 ML0       0.948900
     17 N26         -1.0930    -3.9610     2.1740 nv         1 ML0      -0.962500
     18 N25         -0.1100    -2.4630     0.7540 nb         1 ML0      -0.881000
     19 C20         -0.2290    -1.3740     0.0390 ca         1 ML0       0.709600
     20 O16          0.8080    -0.9460    -0.6970 os         1 ML0      -0.429100
     21 C14          2.0020    -1.6990    -0.7480 c3         1 ML0       0.136400
     22 C15          2.0570    -2.3450    -2.1270 c3         1 ML0       0.650900
     23 F19          2.0640    -1.4420    -3.1120 f          1 ML0      -0.231633
     24 F18          3.1590    -3.0870    -2.2550 f          1 ML0      -0.231633
     25 F17          1.0030    -3.1420    -2.3330 f          1 ML0      -0.231633
     26 C11          3.1880    -0.8040    -0.5090 ca         1 ML0      -0.102300
     27 C10          4.2780    -1.2980     0.1980 ca         1 ML0      -0.091500
     28 C9           5.3950    -0.5080     0.4150 ca         1 ML0      -0.122000
     29 C12          3.2320     0.4990    -0.9950 ca         1 ML0      -0.091500
     30 C13          4.3480     1.2880    -0.7730 ca         1 ML0      -0.122000
     31 C8           5.4490     0.7980    -0.0690 cp         1 ML0      -0.030000
     32 C3           6.6360     1.6450     0.1600 cp         1 ML0      -0.004000
     33 C2           7.0890     2.5190    -0.8290 ca         1 ML0      -0.134000
     34 C4           7.3250     1.5800     1.3710 ca         1 ML0      -0.161000
     35 C5           8.4340     2.3800     1.5580 ca         1 ML0       0.133900
     36 F7           9.0820     2.3110     2.7320 f          1 ML0      -0.146900
     37 C6           8.8970     3.2500     0.5910 ca         1 ML0      -0.170000
     38 C1           8.2070     3.3110    -0.6120 ca         1 ML0      -0.104000
     39 H34         -8.4170     0.3510    -0.6170 h1         1 ML0       0.042700
     40 HN35        -7.9980     1.6910    -2.4370 hn         1 ML0       0.328800
     41 HN3A        -7.6580     2.9820    -1.5520 hn         1 ML0       0.328800
     42 H33         -7.4410     2.7160     1.0290 hc         1 ML0       0.053700
     43 H33A        -8.1760     1.2550     1.6750 hc         1 ML0       0.053700
     44 H29         -5.1320     2.6750     0.1740 ha         1 ML0       0.137500
     45 H28         -2.9710     1.5460     0.1320 ha         1 ML0       0.126500
     46 H31         -6.9970    -0.9110     1.5590 ha         1 ML0       0.137500
     47 H32         -4.8270    -2.0580     1.5200 ha         1 ML0       0.126500
     48 H21         -1.4490     0.2720    -0.6380 ha         1 ML0       0.170000
     49 HN26        -1.8190    -4.1910     2.8290 hn         1 ML0       0.440300
     50 HN2A        -0.1960    -4.3960     2.2970 hn         1 ML0       0.440300
     51 H14          1.9900    -2.5050    -0.0100 h1         1 ML0       0.115700
     52 H10          4.2580    -2.3080     0.5880 ha         1 ML0       0.145500
     53 H9           6.2370    -0.9240     0.9540 ha         1 ML0       0.135500
     54 H12          2.3940     0.9200    -1.5340 ha         1 ML0       0.145500
     55 H13          4.3520     2.3070    -1.1390 ha         1 ML0       0.135500
     56 H2           6.5800     2.5680    -1.7830 ha         1 ML0       0.140000
     57 H4           6.9920     0.9300     2.1710 ha         1 ML0       0.152000
     58 H6           9.7710     3.8630     0.7690 ha         1 ML0       0.148000
     59 H1           8.5530     3.9780    -1.3900 ha         1 ML0       0.135000
@<TRIPOS>BOND
     1     1     2 1   
     2     2     3 1   
     3     2     4 1   
     4     4     5 1   
     5     4     6 1   
     6     4    39 1   
     7     5    40 1   
     8     5    41 1   
     9     6     7 1   
    10     6    42 1   
    11     6    43 1   
    12     7     8 ar  
    13     7    10 ar  
    14     8     9 ar  
    15     8    44 1   
    16     9    12 ar  
    17     9    45 1   
    18    10    11 ar  
    19    10    46 1   
    20    11    12 ar  
    21    11    47 1   
    22    12    13 1   
    23    13    14 ar  
    24    13    15 ar  
    25    14    19 ar  
    26    14    48 1   
    27    15    16 ar  
    28    16    17 1   
    29    16    18 ar  
    30    17    49 1   
    31    17    50 1   
    32    18    19 ar  
    33    19    20 1   
    34    20    21 1   
    35    21    22 1   
    36    21    26 1   
    37    21    51 1   
    38    22    23 1   
    39    22    24 1   
    40    22    25 1   
    41    26    27 ar  
    42    26    29 ar  
    43    27    28 ar  
    44    27    52 1   
    45    28    31 ar  
    46    28    53 1   
    47    29    30 ar  
    48    29    54 1   
    49    30    31 ar  
    50    30    55 1   
    51    31    32 1   
    52    32    33 ar  
    53    32    34 ar  
    54    33    38 ar  
    55    33    56 1   
    56    34    35 ar  
    57    34    57 1   
    58    35    36 1   
    59    35    37 ar  
    60    37    38 ar  
    61    37    58 1   
    62    38    59 1   
@<TRIPOS>SUBSTRUCTURE
     1 ML0         1 TEMP              0 ****  ****    0 ROOT
