@<TRIPOS>MOLECULE
ML1
   33    34     1     0     0
SMALL
No Charge or Current Charge


@<TRIPOS>ATOM
      1 C1           2.2110     0.2740    -0.0960 c3         1 ML1       0.102000
      2 C2          -0.1320     2.9040     0.2070 cc         1 ML1      -0.142100
      3 C3          -4.1500    -2.9770    -0.1370 c3         1 ML1       0.151900
      4 C4           4.3630    -0.9910    -0.3670 c          1 ML1       0.597100
      5 C5           5.6180    -1.4500     0.3650 c3         1 ML1      -0.179100
      6 C6           1.4300     1.0180     1.0030 c3         1 ML1      -0.014200
      7 C8          -1.0690     0.7870     0.2450 ca         1 ML1      -0.056800
      8 C9          -1.3310    -0.5820     0.3820 ca         1 ML1      -0.104000
      9 C12         -3.3040     1.2440    -0.5450 ca         1 ML1      -0.093000
     10 C13         -2.0150     1.6650    -0.1990 ca         1 ML1      -0.077200
     11 C7           0.1200     1.5680     0.5000 cd         1 ML1      -0.154400
     12 C10         -2.6200    -1.0470     0.0430 ca         1 ML1       0.111100
     13 C11         -3.6060    -0.1310    -0.4210 ca         1 ML1      -0.165000
     14 N1           3.4800    -0.2670     0.3980 ns         1 ML1      -0.511900
     15 N2          -1.4740     2.9390    -0.2290 na         1 ML1      -0.223700
     16 O1          -2.8710    -2.3980     0.1800 os         1 ML1      -0.346100
     17 O2           4.1560    -1.2440    -1.5450 o          1 ML1      -0.608100
     18 H11          1.6000    -0.5530    -0.4840 h1         1 ML1       0.056700
     19 H12A         2.4180     0.9630    -0.9250 h1         1 ML1       0.056700
     20 H2           0.5010     3.7850     0.2690 h4         1 ML1       0.211000
     21 H31         -4.1320    -4.0590     0.0430 h1         1 ML1       0.037033
     22 H32         -4.9410    -2.5410     0.4860 h1         1 ML1       0.037033
     23 H33         -4.4010    -2.8120    -1.1930 h1         1 ML1       0.037033
     24 H51          5.3240    -2.0210     1.2530 hc         1 ML1       0.058033
     25 H52          6.2960    -2.0230    -0.2770 hc         1 ML1       0.058033
     26 H53          6.1150    -0.5780     0.8030 hc         1 ML1       0.058033
     27 H61          1.2470     0.3330     1.8400 hc         1 ML1       0.044200
     28 H62          2.0520     1.8310     1.3960 hc         1 ML1       0.044200
     29 H9          -0.5690    -1.2690     0.7390 ha         1 ML1       0.131000
     30 H12         -4.0510     1.9520    -0.8980 ha         1 ML1       0.113000
     31 H111        -4.6040    -0.4660    -0.6870 ha         1 ML1       0.115000
     32 HN1          3.7360    -0.1060     1.3650 hn         1 ML1       0.308500
     33 H16         -1.9740     3.7740    -0.5230 hn         1 ML1       0.351000
@<TRIPOS>BOND
     1     1     6 1   
     2     1    14 1   
     3     1    18 1   
     4     1    19 1   
     5     2    11 2   
     6     2    15 1   
     7     2    20 1   
     8     3    16 1   
     9     3    21 1   
    10     3    22 1   
    11     3    23 1   
    12     4     5 1   
    13     4    14 1   
    14     4    17 2   
    15     5    24 1   
    16     5    25 1   
    17     5    26 1   
    18     6    11 1   
    19     6    27 1   
    20     6    28 1   
    21     7     8 ar  
    22     7    10 ar  
    23     7    11 1   
    24     8    12 ar  
    25     8    29 1   
    26     9    10 ar  
    27     9    13 ar  
    28     9    30 1   
    29    10    15 1   
    30    12    13 ar  
    31    12    16 1   
    32    13    31 1   
    33    14    32 1   
    34    15    33 1   
@<TRIPOS>SUBSTRUCTURE
     1 ML1         1 TEMP              0 ****  ****    0 ROOT
