@<TRIPOS>MOLECULE
ML1
   33    34     1     0     0
SMALL
abcg2


@<TRIPOS>ATOM
      1 C1           2.2240     0.2850    -0.1130 c3         1 ML1       0.102000
      2 C2          -0.1720     2.8280     0.1610 cc         1 ML1      -0.142100
      3 C3          -4.1140    -2.8740    -0.0980 c3         1 ML1       0.151900
      4 C4           4.2740    -1.0490    -0.2800 c          1 ML1       0.597100
      5 C5           5.5480    -1.4610     0.4150 c3         1 ML1      -0.179100
      6 C6           1.4630     1.0350     0.9780 c3         1 ML1      -0.014200
      7 C8          -1.0330     0.7640     0.2420 ca         1 ML1      -0.056800
      8 C9          -1.3380    -0.5910     0.3890 ca         1 ML1      -0.104000
      9 C12         -3.2930     1.2100    -0.5690 ca         1 ML1      -0.093000
     10 C13         -2.0200     1.6530    -0.2360 ca         1 ML1      -0.077200
     11 C7           0.1460     1.5400     0.4920 cd         1 ML1      -0.154400
     12 C10         -2.6100    -1.0350     0.0600 ca         1 ML1       0.111100
     13 C11         -3.5810    -0.1360    -0.4190 ca         1 ML1      -0.165000
     14 N1           3.4870    -0.2020     0.3990 ns         1 ML1      -0.511900
     15 N2          -1.4630     2.9020    -0.2750 na         1 ML1      -0.223700
     16 O1          -2.8420    -2.3610     0.2290 os         1 ML1      -0.346100
     17 O2           3.9760    -1.4750    -1.3900 o          1 ML1      -0.608100
     18 H11          1.6270    -0.5560    -0.4730 h1         1 ML1       0.056700
     19 H12A         2.3840     0.9500    -0.9670 h1         1 ML1       0.056700
     20 H2           0.4420     3.7140     0.2110 h4         1 ML1       0.211000
     21 H31         -4.0820    -3.9410     0.1110 h1         1 ML1       0.037033
     22 H32         -4.9090    -2.4260     0.5060 h1         1 ML1       0.037033
     23 H33         -4.3580    -2.7340    -1.1550 h1         1 ML1       0.037033
     24 H51          5.5040    -2.5250     0.6490 hc         1 ML1       0.058033
     25 H52          6.3930    -1.3100    -0.2560 hc         1 ML1       0.058033
     26 H53          5.7390    -0.9170     1.3390 hc         1 ML1       0.058033
     27 H61          1.3210     0.3690     1.8340 hc         1 ML1       0.044200
     28 H62          2.0690     1.8740     1.3310 hc         1 ML1       0.044200
     29 H9          -0.5990    -1.2950     0.7560 ha         1 ML1       0.131000
     30 H12         -4.0520     1.8900    -0.9350 ha         1 ML1       0.113000
     31 H111        -4.5720    -0.4790    -0.6830 ha         1 ML1       0.115000
     32 HN1          3.7910     0.1280     1.3000 hn         1 ML1       0.308500
     33 H16         -1.9280     3.7460    -0.5610 hn         1 ML1       0.351000
@<TRIPOS>BOND
     1     1     6 1   
     2     1    14 1   
     3     1    18 1   
     4     1    19 1   
     5     2    11 2   
     6     2    15 1   
     7     2    20 1   
     8     3    16 1   
     9     3    21 1   
    10     3    22 1   
    11     3    23 1   
    12     4     5 1   
    13     4    14 1   
    14     4    17 2   
    15     5    24 1   
    16     5    25 1   
    17     5    26 1   
    18     6    11 1   
    19     6    27 1   
    20     6    28 1   
    21     7     8 ar  
    22     7    10 ar  
    23     7    11 1   
    24     8    12 ar  
    25     8    29 1   
    26     9    10 ar  
    27     9    13 ar  
    28     9    30 1   
    29    10    15 1   
    30    12    13 ar  
    31    12    16 1   
    32    13    31 1   
    33    14    32 1   
    34    15    33 1   
@<TRIPOS>SUBSTRUCTURE
     1 ML1         1 TEMP              0 ****  ****    0 ROOT
