@<TRIPOS>MOLECULE
ML2
   33    34     1     0     0
SMALL
No Charge or Current Charge


@<TRIPOS>ATOM
      1 C2           0.2170    -1.4090     0.1000 cc         1 ML2       0.056700
      2 C4          -2.0290    -1.4190    -0.2660 ca         1 ML2      -0.068200
      3 C5          -3.3400    -1.7740    -0.6070 ca         1 ML2      -0.093000
      4 C6          -4.3540    -0.8070    -0.4290 ca         1 ML2      -0.158000
      5 C9          -6.3870     1.2400    -0.0360 c3         1 ML2       0.150900
      6 C12         -0.2990    -0.1700     0.4610 cd         1 ML2      -0.104400
      7 C13          0.4870     1.0010     0.9970 c3         1 ML2      -0.023200
      8 N15          1.6520     3.1210     0.3990 ns         1 ML2      -0.510900
      9 C16          2.2680     4.0620    -0.3910 c          1 ML2       0.599100
     10 C18          3.0080     5.1540     0.3720 c3         1 ML2      -0.179100
     11 I1           2.2320    -2.0710     0.1600 i          1 ML2      -0.107800
     12 N3          -0.8710    -2.1740    -0.3480 na         1 ML2      -0.206700
     13 C7          -4.0400     0.4840     0.0820 ca         1 ML2       0.112100
     14 O8          -4.9990     1.4590     0.2700 os         1 ML2      -0.344100
     15 C10         -2.7060     0.8040     0.4140 ca         1 ML2      -0.101000
     16 C11         -1.7260    -0.1800     0.2260 ca         1 ML2      -0.064800
     17 C14          0.8880     1.9820    -0.1180 c3         1 ML2       0.103000
     18 O17          2.2230     4.0250    -1.6120 o          1 ML2      -0.607100
     19 H5          -3.5710    -2.7630    -0.9980 ha         1 ML2       0.116000
     20 H6          -5.3740    -1.0750    -0.6920 ha         1 ML2       0.117000
     21 H91         -6.9730     2.1400     0.1870 h1         1 ML2       0.038367
     22 H92         -6.5190     1.0040    -1.1000 h1         1 ML2       0.038367
     23 H93         -6.7930     0.4130     0.5610 h1         1 ML2       0.038367
     24 H131        -0.1070     1.5340     1.7490 hc         1 ML2       0.052700
     25 H132         1.3890     0.6500     1.5110 hc         1 ML2       0.052700
     26 H15          1.7430     3.2340     1.4020 hn         1 ML2       0.308500
     27 H181         3.7330     4.6870     1.0480 hc         1 ML2       0.058367
     28 H182         3.4840     5.8840    -0.2920 hc         1 ML2       0.058367
     29 H183         2.3140     5.6340     1.0710 hc         1 ML2       0.058367
     30 H3          -0.8130    -3.1290    -0.6840 hn         1 ML2       0.362000
     31 H10         -2.4510     1.7860     0.8040 ha         1 ML2       0.133000
     32 H141         1.4970     1.4530    -0.8630 h1         1 ML2       0.058700
     33 H142        -0.0150     2.3580    -0.6180 h1         1 ML2       0.058700
@<TRIPOS>BOND
     1     1     6 2   
     2     1    11 1   
     3     1    12 1   
     4     2     3 ar  
     5     2    12 1   
     6     2    16 ar  
     7     3     4 ar  
     8     3    19 1   
     9     4    13 ar  
    10     4    20 1   
    11     5    14 1   
    12     5    21 1   
    13     5    22 1   
    14     5    23 1   
    15     6     7 1   
    16     6    16 1   
    17     7    17 1   
    18     7    24 1   
    19     7    25 1   
    20     8     9 1   
    21     8    17 1   
    22     8    26 1   
    23     9    10 1   
    24     9    18 2   
    25    10    27 1   
    26    10    28 1   
    27    10    29 1   
    28    12    30 1   
    29    13    14 1   
    30    13    15 ar  
    31    15    16 ar  
    32    15    31 1   
    33    17    32 1   
    34    17    33 1   
@<TRIPOS>SUBSTRUCTURE
     1 ML2         1 TEMP              0 ****  ****    0 ROOT
