@<TRIPOS>MOLECULE
ML2
   33    34     1     0     0
SMALL
abcg2


@<TRIPOS>ATOM
      1 C2           0.1430    -1.3990     0.0990 cc         1 ML2       0.056700
      2 C4          -2.0400    -1.4180    -0.2810 ca         1 ML2      -0.068200
      3 C5          -3.3510    -1.7330    -0.6130 ca         1 ML2      -0.093000
      4 C6          -4.3220    -0.7650    -0.4290 ca         1 ML2      -0.158000
      5 C9          -6.2600     1.2260    -0.0330 c3         1 ML2       0.150900
      6 C12         -0.2830    -0.1550     0.4770 cd         1 ML2      -0.104400
      7 C13          0.5270     0.9860     0.9890 c3         1 ML2      -0.023200
      8 N15          1.7460     3.0140     0.3940 ns         1 ML2      -0.510900
      9 C16          2.0200     4.1260    -0.3060 c          1 ML2       0.599100
     10 C18          2.8460     5.1620     0.4150 c3         1 ML2      -0.179100
     11 I1           2.0690    -2.1570     0.1520 i          1 ML2      -0.107800
     12 N3          -0.8930    -2.1630    -0.3510 na         1 ML2      -0.206700
     13 C7          -3.9940     0.5070     0.0790 ca         1 ML2       0.112100
     14 O8          -4.9080     1.4880     0.2730 os         1 ML2      -0.344100
     15 C10         -2.6840     0.8170     0.4090 ca         1 ML2      -0.101000
     16 C11         -1.6940    -0.1520     0.2310 ca         1 ML2      -0.064800
     17 C14          0.9830     1.9080    -0.1400 c3         1 ML2       0.103000
     18 O17          1.6180     4.3010    -1.4500 o          1 ML2      -0.607100
     19 H5          -3.6190    -2.7060    -1.0050 ha         1 ML2       0.116000
     20 H6          -5.3430    -1.0120    -0.6870 ha         1 ML2       0.117000
     21 H91         -6.8120     2.1320     0.2040 h1         1 ML2       0.038367
     22 H92         -6.4070     0.9930    -1.0910 h1         1 ML2       0.038367
     23 H93         -6.6670     0.4050     0.5660 h1         1 ML2       0.038367
     24 H131        -0.0640     1.5620     1.7060 hc         1 ML2       0.052700
     25 H132         1.4010     0.6180     1.5340 hc         1 ML2       0.052700
     26 H15          2.1620     2.9000     1.3040 hn         1 ML2       0.308500
     27 H181         3.1720     4.8510     1.4060 hc         1 ML2       0.058367
     28 H182         3.7290     5.4020    -0.1780 hc         1 ML2       0.058367
     29 H183         2.2670     6.0800     0.5160 hc         1 ML2       0.058367
     30 H3          -0.8260    -3.1080    -0.6890 hn         1 ML2       0.362000
     31 H10         -2.4400     1.7990     0.7980 ha         1 ML2       0.133000
     32 H141         1.5770     1.3390    -0.8630 h1         1 ML2       0.058700
     33 H142         0.1140     2.2930    -0.6750 h1         1 ML2       0.058700
@<TRIPOS>BOND
     1     1     6 2   
     2     1    11 1   
     3     1    12 1   
     4     2     3 ar  
     5     2    12 1   
     6     2    16 ar  
     7     3     4 ar  
     8     3    19 1   
     9     4    13 ar  
    10     4    20 1   
    11     5    14 1   
    12     5    21 1   
    13     5    22 1   
    14     5    23 1   
    15     6     7 1   
    16     6    16 1   
    17     7    17 1   
    18     7    24 1   
    19     7    25 1   
    20     8     9 1   
    21     8    17 1   
    22     8    26 1   
    23     9    10 1   
    24     9    18 2   
    25    10    27 1   
    26    10    28 1   
    27    10    29 1   
    28    12    30 1   
    29    13    14 1   
    30    13    15 ar  
    31    15    16 ar  
    32    15    31 1   
    33    17    32 1   
    34    17    33 1   
@<TRIPOS>SUBSTRUCTURE
     1 ML2         1 TEMP              0 ****  ****    0 ROOT
