@<TRIPOS>MOLECULE
ML3
   31    30     1     0     0
SMALL
bcc


@<TRIPOS>ATOM
      1 N           63.0050    47.6690    45.2420 n8         1 ML3      -0.854800
      2 CA          63.0460    46.5180    44.3460 c3         1 ML3       0.013500
      3 CB          62.7330    45.2180    45.0890 c3         1 ML3       0.003700
      4 SG          62.8010    43.7170    44.0670 ss         1 ML3      -0.285200
      5 CD          64.5930    43.4970    43.8830 c3         1 ML3      -0.050300
      6 CE          65.3230    42.9920    45.1170 c3         1 ML3       0.134800
      7 NZ          65.4060    41.4950    45.2820 n4         1 ML3      -0.607800
      8 CM1         66.0070    41.2300    46.6220 c3         1 ML3       0.106100
      9 CM2         64.0680    40.8430    45.2180 c3         1 ML3       0.106100
     10 CM3         66.2930    40.9040    44.2400 c3         1 ML3       0.106100
     11 C           62.0320    46.7460    43.2000 c          1 ML3       0.943600
     12 O           62.4710    46.7650    42.0360 o          1 ML3      -0.813800
     13 OXT         60.8460    46.8960    43.5620 o          1 ML3      -0.813800
     14 HN          62.0580    47.7730    45.5870 hn         1 ML3       0.322300
     15 HNA         63.5870    47.4980    46.0540 hn         1 ML3       0.322300
     16 HA          64.0540    46.4570    43.9270 h1         1 ML3       0.037700
     17 HB          63.3940    45.0960    45.9520 h1         1 ML3       0.052200
     18 HD          64.7420    42.8530    43.0150 h1         1 ML3       0.104700
     19 HE          66.3570    43.3370    45.0990 hx         1 ML3       0.086700
     20 HEA         64.8620    43.3790    46.0250 hx         1 ML3       0.086700
     21 HM1         66.9740    41.7230    46.6830 hx         1 ML3       0.093811
     22 HM1A        65.3440    41.6170    47.3910 hx         1 ML3       0.093811
     23 HM1B        66.1320    40.1570    46.7490 hx         1 ML3       0.093811
     24 HM2         63.6590    40.9400    44.2170 hx         1 ML3       0.093811
     25 HM2A        64.1910    39.7890    45.4560 hx         1 ML3       0.093811
     26 HM2B        63.4030    41.3120    45.9380 hx         1 ML3       0.093811
     27 HM3         65.8740    41.0750    43.2540 hx         1 ML3       0.093811
     28 HM3A        67.2760    41.3600    44.3100 hx         1 ML3       0.093811
     29 HM3B        66.3700    39.8340    44.4140 hx         1 ML3       0.093811
     30 H17         61.7120    45.2550    45.4730 h1         1 ML3       0.052200
     31 H18         65.0400    44.4540    43.6130 h1         1 ML3       0.104700
@<TRIPOS>BOND
     1     1     2 1   
     2     1    14 1   
     3     1    15 1   
     4     2     3 1   
     5     2    11 1   
     6     2    16 1   
     7     3     4 1   
     8     3    17 1   
     9     3    30 1   
    10     4     5 1   
    11     5     6 1   
    12     5    18 1   
    13     5    31 1   
    14     6     7 1   
    15     6    19 1   
    16     6    20 1   
    17     7     8 1   
    18     7     9 1   
    19     7    10 1   
    20     8    21 1   
    21     8    22 1   
    22     8    23 1   
    23     9    24 1   
    24     9    25 1   
    25     9    26 1   
    26    10    27 1   
    27    10    28 1   
    28    10    29 1   
    29    11    12 1   
    30    11    13 1   
@<TRIPOS>SUBSTRUCTURE
     1 ML3         1 TEMP              0 ****  ****    0 ROOT
