@<TRIPOS>MOLECULE
ML3
   31    30     1     0     0
SMALL
No Charge or Current Charge


@<TRIPOS>ATOM
      1 N           62.9010    47.0230    45.8310 n8         1 ML3      -0.965200
      2 CA          63.0880    46.1700    44.5960 c3         1 ML3       0.013500
      3 CB          62.5500    44.7360    44.8460 c3         1 ML3       0.051600
      4 SG          62.9160    43.5680    43.4490 ss         1 ML3      -0.381000
      5 CD          64.7750    43.5620    43.4210 c3         1 ML3      -0.002400
      6 CE          65.4230    43.2000    44.7820 c3         1 ML3       0.106600
      7 NZ          65.3540    41.7450    45.2920 n4         1 ML3      -0.495000
      8 CM1         66.1650    41.6470    46.5900 c3         1 ML3       0.077900
      9 CM2         63.9090    41.3230    45.5900 c3         1 ML3       0.077900
     10 CM3         65.9610    40.7840    44.2590 c3         1 ML3       0.077900
     11 C           62.5030    46.7610    43.2500 c          1 ML3       0.733000
     12 O           63.2910    47.0940    42.3730 o          1 ML3      -0.708500
     13 OXT         61.2980    46.9800    43.1850 o          1 ML3      -0.708500
     14 HN          61.8970    47.1910    45.9750 hn         1 ML3       0.377500
     15 HNA         63.1910    46.5000    46.6660 hn         1 ML3       0.377500
     16 HA          64.1730    46.0890    44.4540 h1         1 ML3       0.037700
     17 HB          62.9850    44.3290    45.7680 h1         1 ML3       0.052200
     18 HD          65.1210    42.8630    42.6490 h1         1 ML3       0.104700
     19 HE          66.4860    43.4440    44.7070 hx         1 ML3       0.086700
     20 HEA         65.0010    43.8430    45.5560 hx         1 ML3       0.086700
     21 HM1         67.2010    41.9300    46.3910 hx         1 ML3       0.093811
     22 HM1A        65.7370    42.3210    47.3350 hx         1 ML3       0.093811
     23 HM1B        66.1300    40.6200    46.9610 hx         1 ML3       0.093811
     24 HM2         63.3360    41.3150    44.6610 hx         1 ML3       0.093811
     25 HM2A        63.9090    40.3210    46.0240 hx         1 ML3       0.093811
     26 HM2B        63.4630    42.0290    46.2930 hx         1 ML3       0.093811
     27 HM3         65.3680    40.8170    43.3430 hx         1 ML3       0.093811
     28 HM3A        66.9880    41.0860    44.0450 hx         1 ML3       0.093811
     29 HM3B        65.9520    39.7700    44.6630 hx         1 ML3       0.093811
     30 H17         61.4610    44.7760    44.9820 h1         1 ML3       0.052200
     31 H18         65.1200    44.5610    43.1250 h1         1 ML3       0.104700
@<TRIPOS>BOND
     1     1     2 1   
     2     1    14 1   
     3     1    15 1   
     4     2     3 1   
     5     2    11 1   
     6     2    16 1   
     7     3     4 1   
     8     3    17 1   
     9     3    30 1   
    10     4     5 1   
    11     5     6 1   
    12     5    18 1   
    13     5    31 1   
    14     6     7 1   
    15     6    19 1   
    16     6    20 1   
    17     7     8 1   
    18     7     9 1   
    19     7    10 1   
    20     8    21 1   
    21     8    22 1   
    22     8    23 1   
    23     9    24 1   
    24     9    25 1   
    25     9    26 1   
    26    10    27 1   
    27    10    28 1   
    28    10    29 1   
    29    11    12 1   
    30    11    13 1   
@<TRIPOS>SUBSTRUCTURE
     1 ML3         1 TEMP              0 ****  ****    0 ROOT
