@<TRIPOS>MOLECULE
ML4
   58    61     1     0     0
SMALL
abcg2


@<TRIPOS>ATOM
      1 O3          -8.5840    -1.9200    -1.0220 o          1 ML4      -0.728000
      2 C2          -8.3200    -1.2730     0.0110 c          1 ML4       0.723000
      3 O1          -9.0280    -1.1780     1.0320 o          1 ML4      -0.728000
      4 C4          -6.9470    -0.5640     0.0280 c3         1 ML4       0.028500
      5 N5          -6.8950     0.4550     1.0560 n8         1 ML4      -0.991200
      6 C6          -5.8490    -1.6520     0.1380 c3         1 ML4      -0.074100
      7 C7          -4.4660    -1.0730     0.1050 ca         1 ML4      -0.032300
      8 C12         -3.8420    -0.7740    -1.1060 ca         1 ML4      -0.126000
      9 C11         -2.5920    -0.1810    -1.1470 ca         1 ML4      -0.090000
     10 C10         -1.9150     0.1500     0.0290 cp         1 ML4      -0.166500
     11 C9          -2.5290    -0.1620     1.2430 ca         1 ML4      -0.090000
     12 C8          -3.7810    -0.7570     1.2770 ca         1 ML4      -0.126000
     13 C13         -0.5930     0.7930    -0.0230 cp         1 ML4       0.317500
     14 N18          0.1360     0.6570    -1.1350 nb         1 ML4      -0.615000
     15 C17          1.3290     1.1940    -1.1910 ca         1 ML4       0.242900
     16 C16          1.8680     1.9090    -0.0970 ca         1 ML4       0.562900
     17 N15          1.1170     2.1110     0.9840 nb         1 ML4      -0.735000
     18 C14         -0.0860     1.5630     1.0160 ca         1 ML4       0.339900
     19 N19          3.1070     2.4500    -0.0850 nu         1 ML4      -0.935100
     20 C20          4.1960     2.1440    -0.9820 c3         1 ML4       0.285100
     21 C21          5.3490     1.4750    -0.2710 ca         1 ML4      -0.112300
     22 C26          5.2430     0.1770     0.2460 cp         1 ML4      -0.005000
     23 C25          6.3240    -0.3720     0.9290 ca         1 ML4      -0.104000
     24 C24          7.5030     0.3420     1.1020 ca         1 ML4      -0.106000
     25 C23          7.6100     1.6240     0.5860 ca         1 ML4      -0.117000
     26 C22          6.5340     2.1810    -0.0920 ca         1 ML4      -0.103000
     27 C27          4.0080    -0.6340     0.0810 cp         1 ML4      -0.062000
     28 C32          3.0880    -0.7030     1.1230 ca         1 ML4      -0.093000
     29 C31          1.9360    -1.4670     1.0090 ca         1 ML4      -0.111000
     30 C30          1.7010    -2.1760    -0.1580 ca         1 ML4      -0.084000
     31 C29          2.6190    -2.1200    -1.1960 ca         1 ML4      -0.108000
     32 C28          3.7790    -1.3540    -1.0980 ca         1 ML4      -0.069300
     33 C33          4.7640    -1.3170    -2.2320 c3         1 ML4      -0.044800
     34 H4          -6.8130    -0.0760    -0.9450 h1         1 ML4       0.046700
     35 HN5         -7.2180     0.0600     1.9300 hn         1 ML4       0.380000
     36 HN5A        -5.9420     0.7670     1.2020 hn         1 ML4       0.380000
     37 H6          -5.9950    -2.2110     1.0670 hc         1 ML4       0.056700
     38 H6A         -5.9760    -2.3570    -0.6860 hc         1 ML4       0.056700
     39 H12         -4.3450    -1.0100    -2.0380 ha         1 ML4       0.116000
     40 H11         -2.1370     0.0360    -2.1040 ha         1 ML4       0.106500
     41 H9          -2.0260     0.0430     2.1800 ha         1 ML4       0.106500
     42 H8          -4.2260    -0.9950     2.2360 ha         1 ML4       0.116000
     43 H17          1.8820     1.0680    -2.1140 h4         1 ML4       0.020100
     44 H14         -0.6750     1.7620     1.9050 h4         1 ML4       0.027100
     45 HN19         3.3510     2.9240     0.7710 hn         1 ML4       0.492000
     46 H20          3.8320     1.5170    -1.7950 h1         1 ML4       0.054200
     47 H20A         4.5550     3.0630    -1.4520 h1         1 ML4       0.054200
     48 H25          6.2410    -1.3770     1.3250 ha         1 ML4       0.119000
     49 H24          8.3310    -0.1040     1.6370 ha         1 ML4       0.111000
     50 H23          8.5220     2.1920     0.7130 ha         1 ML4       0.111000
     51 H22          6.6160     3.1870    -0.4880 ha         1 ML4       0.110000
     52 H32          3.2740    -0.1420     2.0310 ha         1 ML4       0.117000
     53 H31          1.2240    -1.4980     1.8230 ha         1 ML4       0.121000
     54 H30          0.8030    -2.7710    -0.2640 ha         1 ML4       0.125000
     55 H29          2.4350    -2.6830    -2.1030 ha         1 ML4       0.112000
     56 H33          5.7690    -1.5830    -1.9010 hc         1 ML4       0.039367
     57 H33A         4.4770    -2.0080    -3.0240 hc         1 ML4       0.039367
     58 H33B         4.8340    -0.3220    -2.6770 hc         1 ML4       0.039367
@<TRIPOS>BOND
     1     1     2 1   
     2     2     3 1   
     3     2     4 1   
     4     4     5 1   
     5     4     6 1   
     6     4    34 1   
     7     5    35 1   
     8     5    36 1   
     9     6     7 1   
    10     6    37 1   
    11     6    38 1   
    12     7     8 ar  
    13     7    12 ar  
    14     8     9 ar  
    15     8    39 1   
    16     9    10 ar  
    17     9    40 1   
    18    10    11 ar  
    19    10    13 1   
    20    11    12 ar  
    21    11    41 1   
    22    12    42 1   
    23    13    14 ar  
    24    13    18 ar  
    25    14    15 ar  
    26    15    16 ar  
    27    15    43 1   
    28    16    17 ar  
    29    16    19 1   
    30    17    18 ar  
    31    18    44 1   
    32    19    20 1   
    33    19    45 1   
    34    20    21 1   
    35    20    46 1   
    36    20    47 1   
    37    21    22 ar  
    38    21    26 ar  
    39    22    23 ar  
    40    22    27 1   
    41    23    24 ar  
    42    23    48 1   
    43    24    25 ar  
    44    24    49 1   
    45    25    26 ar  
    46    25    50 1   
    47    26    51 1   
    48    27    28 ar  
    49    27    32 ar  
    50    28    29 ar  
    51    28    52 1   
    52    29    30 ar  
    53    29    53 1   
    54    30    31 ar  
    55    30    54 1   
    56    31    32 ar  
    57    31    55 1   
    58    32    33 1   
    59    33    56 1   
    60    33    57 1   
    61    33    58 1   
@<TRIPOS>SUBSTRUCTURE
     1 ML4         1 TEMP              0 ****  ****    0 ROOT
