@<TRIPOS>MOLECULE
ML4
   58    61     1     0     0
SMALL
No Charge or Current Charge


@<TRIPOS>ATOM
      1 O3          -8.9240    -1.8430    -0.7470 o          1 ML4      -0.728000
      2 C2          -8.3570    -1.5250     0.2910 c          1 ML4       0.723000
      3 O1          -8.8250    -1.7450     1.4020 o          1 ML4      -0.728000
      4 C4          -6.9960    -0.7160     0.1870 c3         1 ML4       0.028500
      5 N5          -6.9760     0.6580     0.8110 n8         1 ML4      -0.991200
      6 C6          -5.8110    -1.5610     0.7250 c3         1 ML4      -0.074100
      7 C7          -4.4450    -0.9130     0.5100 ca         1 ML4      -0.032300
      8 C12         -3.9080    -0.8030    -0.7840 ca         1 ML4      -0.126000
      9 C11         -2.6490    -0.2130    -0.9870 ca         1 ML4      -0.090000
     10 C10         -1.8820     0.2900     0.1000 cp         1 ML4      -0.166500
     11 C9          -2.4410     0.1610     1.4010 ca         1 ML4      -0.090000
     12 C8          -3.7010    -0.4310     1.6010 ca         1 ML4      -0.126000
     13 C13         -0.5280     0.9230    -0.1150 cp         1 ML4       0.317500
     14 N18          0.0880     0.6660    -1.3030 nb         1 ML4      -0.615000
     15 C17          1.3290     1.2040    -1.4620 ca         1 ML4       0.242900
     16 C16          1.9410     2.0190    -0.4540 ca         1 ML4       0.562900
     17 N15          1.3410     2.3280     0.7030 nb         1 ML4      -0.735000
     18 C14          0.1080     1.7650     0.8680 ca         1 ML4       0.339900
     19 N19          3.1640     2.6400    -0.5460 nu         1 ML4      -0.935100
     20 C20          4.3520     2.0640    -1.1850 c3         1 ML4       0.285100
     21 C21          5.2600     1.4200    -0.1410 ca         1 ML4      -0.112300
     22 C26          5.0670     0.0850     0.3190 cp         1 ML4      -0.005000
     23 C25          5.9400    -0.4270     1.3080 ca         1 ML4      -0.104000
     24 C24          6.9890     0.3490     1.8240 ca         1 ML4      -0.106000
     25 C23          7.1780     1.6590     1.3620 ca         1 ML4      -0.117000
     26 C22          6.3170     2.1910     0.3880 ca         1 ML4      -0.103000
     27 C27          3.9630    -0.7830    -0.1850 cp         1 ML4      -0.062000
     28 C32          2.8480    -1.0290     0.6500 ca         1 ML4      -0.093000
     29 C31          1.7900    -1.8470     0.2250 ca         1 ML4      -0.111000
     30 C30          1.8320    -2.4350    -1.0470 ca         1 ML4      -0.084000
     31 C29          2.9380    -2.2160    -1.8850 ca         1 ML4      -0.108000
     32 C28          4.0100    -1.4040    -1.4650 ca         1 ML4      -0.069300
     33 C33          5.2020    -1.2400    -2.4050 c3         1 ML4      -0.044800
     34 H4          -6.8160    -0.5690    -0.8870 h1         1 ML4       0.046700
     35 HN5         -7.2230     0.5690     1.8040 hn         1 ML4       0.380000
     36 HN5A        -6.0050     0.9900     0.8290 hn         1 ML4       0.380000
     37 H6          -5.9730    -1.7710     1.7900 hc         1 ML4       0.056700
     38 H6A         -5.8270    -2.5380     0.2260 hc         1 ML4       0.056700
     39 H12         -4.4680    -1.1770    -1.6380 ha         1 ML4       0.116000
     40 H11         -2.2710    -0.1430    -2.0040 ha         1 ML4       0.106500
     41 H9          -1.8960     0.5060     2.2750 ha         1 ML4       0.106500
     42 H8          -4.0960    -0.5160     2.6100 ha         1 ML4       0.116000
     43 H17          1.8320     0.9970    -2.4050 h4         1 ML4       0.020100
     44 H14         -0.3890     2.0020     1.8060 h4         1 ML4       0.027100
     45 HN19         3.3450     3.1620     0.3070 hn         1 ML4       0.492000
     46 H20          4.0700     1.3390    -1.9580 h1         1 ML4       0.054200
     47 H20A         4.9130     2.8620    -1.6920 h1         1 ML4       0.054200
     48 H25          5.7970    -1.4420     1.6710 ha         1 ML4       0.119000
     49 H24          7.6510    -0.0640     2.5810 ha         1 ML4       0.111000
     50 H23          7.9880     2.2650     1.7610 ha         1 ML4       0.111000
     51 H22          6.4720     3.2120     0.0450 ha         1 ML4       0.110000
     52 H32          2.8070    -0.5710     1.6360 ha         1 ML4       0.117000
     53 H31          0.9360    -2.0190     0.8770 ha         1 ML4       0.121000
     54 H30          1.0100    -3.0650    -1.3830 ha         1 ML4       0.125000
     55 H29          2.9630    -2.6870    -2.8660 ha         1 ML4       0.112000
     56 H33          6.1300    -1.0280    -1.8610 hc         1 ML4       0.039367
     57 H33A         5.3750    -2.1530    -2.9870 hc         1 ML4       0.039367
     58 H33B         5.0340    -0.4230    -3.1170 hc         1 ML4       0.039367
@<TRIPOS>BOND
     1     1     2 1   
     2     2     3 1   
     3     2     4 1   
     4     4     5 1   
     5     4     6 1   
     6     4    34 1   
     7     5    35 1   
     8     5    36 1   
     9     6     7 1   
    10     6    37 1   
    11     6    38 1   
    12     7     8 ar  
    13     7    12 ar  
    14     8     9 ar  
    15     8    39 1   
    16     9    10 ar  
    17     9    40 1   
    18    10    11 ar  
    19    10    13 1   
    20    11    12 ar  
    21    11    41 1   
    22    12    42 1   
    23    13    14 ar  
    24    13    18 ar  
    25    14    15 ar  
    26    15    16 ar  
    27    15    43 1   
    28    16    17 ar  
    29    16    19 1   
    30    17    18 ar  
    31    18    44 1   
    32    19    20 1   
    33    19    45 1   
    34    20    21 1   
    35    20    46 1   
    36    20    47 1   
    37    21    22 ar  
    38    21    26 ar  
    39    22    23 ar  
    40    22    27 1   
    41    23    24 ar  
    42    23    48 1   
    43    24    25 ar  
    44    24    49 1   
    45    25    26 ar  
    46    25    50 1   
    47    26    51 1   
    48    27    28 ar  
    49    27    32 ar  
    50    28    29 ar  
    51    28    52 1   
    52    29    30 ar  
    53    29    53 1   
    54    30    31 ar  
    55    30    54 1   
    56    31    32 ar  
    57    31    55 1   
    58    32    33 1   
    59    33    56 1   
    60    33    57 1   
    61    33    58 1   
@<TRIPOS>SUBSTRUCTURE
     1 ML4         1 TEMP              0 ****  ****    0 ROOT
