@<TRIPOS>MOLECULE
ML6
   43    45     1     0     0
SMALL
No Charge or Current Charge


@<TRIPOS>ATOM
      1 N01          4.8750     1.4420    -0.1860 nb         1 ML6      -0.756000
      2 C02          5.9880     1.5990     0.5150 ca         1 ML6       0.613900
      3 N02          6.4870     2.8250     0.3500 nv         1 ML6      -1.068900
      4 C03          6.5830     0.6200     1.3130 ca         1 ML6      -0.210000
      5 C04          5.9610    -0.6340     1.3940 ca         1 ML6      -0.029000
      6 C05          4.7750    -0.8280     0.6620 ca         1 ML6      -0.130000
      7 C06          4.1110    -2.0690     0.7100 ca         1 ML6      -0.075000
      8 C07          2.9290    -2.2620    -0.0210 ca         1 ML6      -0.129000
      9 C08          2.4020    -1.2190    -0.8050 ca         1 ML6      -0.071300
     10 C09          3.0700     0.0210    -0.8460 ca         1 ML6      -0.083000
     11 C10          4.2570     0.2370    -0.1220 ca         1 ML6       0.323000
     12 C11          1.1200    -1.4230    -1.6020 c3         1 ML6       0.207100
     13 N12         -0.0250    -0.8200    -0.8990 n7         1 ML6      -0.864400
     14 C13         -1.3260    -0.9840    -1.5680 c3         1 ML6       0.162800
     15 C14         -2.4380    -0.3030    -0.7460 c3         1 ML6      -0.079400
     16 C15         -3.8320    -0.4300    -1.3970 c3         1 ML6      -0.033100
     17 C21         -4.9150     0.2480    -0.5690 ca         1 ML6      -0.050300
     18 C22         -5.2370     1.6020    -0.7900 ca         1 ML6      -0.123000
     19 C23         -6.2340     2.2320    -0.0240 ca         1 ML6      -0.083000
     20 C24         -6.9140     1.5090     0.9720 ca         1 ML6      -0.153000
     21 C25         -6.5930     0.1610     1.1960 ca         1 ML6       0.171000
     22 F25         -7.2450    -0.5340     2.1540 f          1 ML6      -0.182000
     23 C26         -5.5990    -0.4700     0.4320 ca         1 ML6      -0.151000
     24 HN02         6.0920     3.3340    -0.4310 hn         1 ML6       0.476500
     25 HN0A         7.4790     2.9530     0.5160 hn         1 ML6       0.476500
     26 H03          7.4990     0.8250     1.8570 ha         1 ML6       0.119000
     27 H04          6.3860    -1.4270     2.0040 ha         1 ML6       0.115000
     28 H06          4.5100    -2.8830     1.3120 ha         1 ML6       0.110000
     29 H07          2.4220    -3.2240     0.0220 ha         1 ML6       0.110000
     30 H09          2.6630     0.8300    -1.4460 ha         1 ML6       0.146000
     31 H11          1.2410    -0.9700    -2.5960 h1         1 ML6       0.036700
     32 H11A         0.9550    -2.4990    -1.7520 h1         1 ML6       0.036700
     33 HN12        -0.0850    -1.2570     0.0290 hn         1 ML6       0.413000
     34 H13         -1.2970    -0.5350    -2.5710 h1         1 ML6       0.027700
     35 H13A        -1.5660    -2.0500    -1.6830 h1         1 ML6       0.027700
     36 H14         -2.4700    -0.7450     0.2580 hc         1 ML6       0.052200
     37 H14A        -2.1960     0.7600    -0.6220 hc         1 ML6       0.052200
     38 H15         -3.8000     0.0050    -2.4040 hc         1 ML6       0.048700
     39 H15A        -4.0710    -1.4930    -1.5310 hc         1 ML6       0.048700
     40 H22         -4.7130     2.1680    -1.5570 ha         1 ML6       0.117000
     41 H23         -6.4780     3.2770    -0.2010 ha         1 ML6       0.117000
     42 H24         -7.6850     1.9890     1.5680 ha         1 ML6       0.131000
     43 H26         -5.3600    -1.5130     0.6190 ha         1 ML6       0.129000
@<TRIPOS>BOND
     1     1     2 ar  
     2     1    11 ar  
     3     2     3 1   
     4     2     4 ar  
     5     3    24 1   
     6     3    25 1   
     7     4     5 ar  
     8     4    26 1   
     9     5     6 ar  
    10     5    27 1   
    11     6     7 ar  
    12     6    11 ar  
    13     7     8 ar  
    14     7    28 1   
    15     8     9 ar  
    16     8    29 1   
    17     9    10 ar  
    18     9    12 1   
    19    10    11 ar  
    20    10    30 1   
    21    12    13 1   
    22    12    31 1   
    23    12    32 1   
    24    13    14 1   
    25    13    33 1   
    26    14    15 1   
    27    14    34 1   
    28    14    35 1   
    29    15    16 1   
    30    15    36 1   
    31    15    37 1   
    32    16    17 1   
    33    16    38 1   
    34    16    39 1   
    35    17    18 ar  
    36    17    23 ar  
    37    18    19 ar  
    38    18    40 1   
    39    19    20 ar  
    40    19    41 1   
    41    20    21 ar  
    42    20    42 1   
    43    21    22 1   
    44    21    23 ar  
    45    23    43 1   
@<TRIPOS>SUBSTRUCTURE
     1 ML6         1 TEMP              0 ****  ****    0 ROOT
