@<TRIPOS>MOLECULE
ML6
   43    45     1     0     0
SMALL
bcc


@<TRIPOS>ATOM
      1 N01          4.2330     1.3880     0.4860 nb         1 ML6      -0.756000
      2 C02          5.4370     1.7060     0.9010 ca         1 ML6       0.679200
      3 N02          5.6610     2.9840     1.3010 nv         1 ML6      -0.958500
      4 C03          6.5030     0.7560     0.9860 ca         1 ML6      -0.293300
      5 C04          6.2610    -0.5280     0.6210 ca         1 ML6      -0.047000
      6 C05          4.9700    -0.9050     0.1720 ca         1 ML6      -0.195300
      7 C06          4.6380    -2.2160    -0.2210 ca         1 ML6      -0.093000
      8 C07          3.3690    -2.5170    -0.6400 ca         1 ML6      -0.147000
      9 C08          2.3720    -1.5180    -0.6920 ca         1 ML6      -0.071300
     10 C09          2.6840    -0.2340    -0.3130 ca         1 ML6      -0.166300
     11 C10          3.9820     0.1060     0.1270 ca         1 ML6       0.453600
     12 C11          0.9970    -1.8820    -1.1920 c3         1 ML6       0.207100
     13 N12         -0.0340    -1.0100    -0.6760 n7         1 ML6      -0.809200
     14 C13         -1.3390    -1.2630    -1.2550 c3         1 ML6       0.162800
     15 C14         -2.3880    -0.3430    -0.6510 c3         1 ML6      -0.079400
     16 C15         -3.7650    -0.5360    -1.2880 c3         1 ML6      -0.033100
     17 C21         -4.8030     0.3390    -0.6450 ca         1 ML6      -0.050300
     18 C22         -5.0720     1.6140    -1.1370 ca         1 ML6      -0.141000
     19 C23         -5.9970     2.4360    -0.5080 ca         1 ML6      -0.101000
     20 C24         -6.6740     2.0030     0.6250 ca         1 ML6      -0.171000
     21 C25         -6.3950     0.7360     1.0980 ca         1 ML6       0.135900
     22 F25         -7.0430     0.2950     2.1920 f          1 ML6      -0.146900
     23 C26         -5.4790    -0.1000     0.4910 ca         1 ML6      -0.169000
     24 HN02         4.9860     3.6790     1.0270 hn         1 ML6       0.421300
     25 HN0A         6.6090     3.3120     1.3670 hn         1 ML6       0.421300
     26 H03          7.4790     1.0690     1.3340 ha         1 ML6       0.137000
     27 H04          7.0490    -1.2700     0.6700 ha         1 ML6       0.133000
     28 H06          5.3980    -2.9880    -0.1790 ha         1 ML6       0.128000
     29 H07          3.1210    -3.5310    -0.9290 ha         1 ML6       0.128000
     30 H09          1.9290     0.5420    -0.3410 ha         1 ML6       0.164000
     31 H11          0.9930    -1.8000    -2.2850 h1         1 ML6       0.036700
     32 H11A         0.8110    -2.9460    -0.9770 h1         1 ML6       0.036700
     33 HN12        -0.0890    -1.1270     0.3290 hn         1 ML6       0.357800
     34 H13         -1.2750    -1.0850    -2.3340 h1         1 ML6       0.027700
     35 H13A        -1.6620    -2.3100    -1.1350 h1         1 ML6       0.027700
     36 H14         -2.4590    -0.5250     0.4260 hc         1 ML6       0.052200
     37 H14A        -2.0710     0.6970    -0.7740 hc         1 ML6       0.052200
     38 H15         -3.7020    -0.3100    -2.3560 hc         1 ML6       0.048700
     39 H15A        -4.0620    -1.5850    -1.2060 hc         1 ML6       0.048700
     40 H22         -4.5540     1.9650    -2.0220 ha         1 ML6       0.135000
     41 H23         -6.1980     3.4240    -0.9010 ha         1 ML6       0.135000
     42 H24         -7.4010     2.6320     1.1220 ha         1 ML6       0.149000
     43 H26         -5.2950    -1.0880     0.8970 ha         1 ML6       0.147000
@<TRIPOS>BOND
     1     1     2 ar  
     2     1    11 ar  
     3     2     3 1   
     4     2     4 ar  
     5     3    24 1   
     6     3    25 1   
     7     4     5 ar  
     8     4    26 1   
     9     5     6 ar  
    10     5    27 1   
    11     6     7 ar  
    12     6    11 ar  
    13     7     8 ar  
    14     7    28 1   
    15     8     9 ar  
    16     8    29 1   
    17     9    10 ar  
    18     9    12 1   
    19    10    11 ar  
    20    10    30 1   
    21    12    13 1   
    22    12    31 1   
    23    12    32 1   
    24    13    14 1   
    25    13    33 1   
    26    14    15 1   
    27    14    34 1   
    28    14    35 1   
    29    15    16 1   
    30    15    36 1   
    31    15    37 1   
    32    16    17 1   
    33    16    38 1   
    34    16    39 1   
    35    17    18 ar  
    36    17    23 ar  
    37    18    19 ar  
    38    18    40 1   
    39    19    20 ar  
    40    19    41 1   
    41    20    21 ar  
    42    20    42 1   
    43    21    22 1   
    44    21    23 ar  
    45    23    43 1   
@<TRIPOS>SUBSTRUCTURE
     1 ML6         1 TEMP              0 ****  ****    0 ROOT
