@<TRIPOS>MOLECULE
ML7
   41    43     1     0     0
SMALL
No Charge or Current Charge


@<TRIPOS>ATOM
      1 C10          0.4860    -1.2690     0.7340 c          1 ML7       0.634700
      2 C11         -0.5360    -0.2100     1.1060 ca         1 ML7      -0.152600
      3 C12         -2.7990     0.7410     0.7790 cp         1 ML7      -0.034000
      4 C13         -1.8040    -0.2230     0.4790 ca         1 ML7      -0.048000
      5 C14         -0.2630     0.8030     2.0560 ca         1 ML7      -0.087000
      6 C15         -1.2360     1.7660     2.3670 ca         1 ML7      -0.118000
      7 C16         -2.4900     1.7350     1.7380 ca         1 ML7      -0.079000
      8 C20         -4.1350     0.7100     0.1030 cp         1 ML7      -0.043000
      9 C21         -6.6720     0.6510    -1.1780 ca         1 ML7      -0.103000
     10 C22         -5.5160     0.2920    -1.8890 ca         1 ML7      -0.110500
     11 C23         -4.2620     0.3210    -1.2550 ca         1 ML7      -0.096500
     12 C25         -6.5720     1.0400     0.1670 ca         1 ML7      -0.110500
     13 C24         -5.3170     1.0690     0.8000 ca         1 ML7      -0.096500
     14 O19          0.2600    -2.1140    -0.1240 o          1 ML7      -0.526100
     15 N09          1.7020    -1.2260     1.4120 ns         1 ML7      -0.380300
     16 N08          2.8410    -2.0660     1.0860 n7         1 ML7      -0.577300
     17 S07          4.2150    -1.5090     0.2760 sy         1 ML7       1.129600
     18 O17          5.1760    -1.1180     1.3120 o          1 ML7      -0.513000
     19 O18          4.5160    -2.5020    -0.7610 o          1 ML7      -0.513000
     20 C06          3.5520    -0.0220    -0.5100 ca         1 ML7      -0.317500
     21 C01          2.8320    -0.1280    -1.7190 ca         1 ML7      -0.019000
     22 C02          2.2840     1.0220    -2.3130 ca         1 ML7      -0.131000
     23 C03          2.4490     2.2790    -1.7070 ca         1 ML7      -0.054000
     24 C04          3.1640     2.3860    -0.5020 ca         1 ML7      -0.131000
     25 C05          3.7150     1.2410     0.0990 ca         1 ML7      -0.019000
     26 H1          -2.0310    -1.0020    -0.2450 ha         1 ML7       0.138000
     27 H2           0.6970     0.8660     2.5620 ha         1 ML7       0.111000
     28 H3          -1.0160     2.5420     3.0960 ha         1 ML7       0.117000
     29 H4          -3.2220     2.5000     1.9850 ha         1 ML7       0.120000
     30 H5          -7.6430     0.6290    -1.6690 ha         1 ML7       0.114000
     31 H6          -5.5910    -0.0060    -2.9330 ha         1 ML7       0.114500
     32 H7          -3.3780     0.0530    -1.8290 ha         1 ML7       0.116000
     33 H8          -7.4670     1.3160     0.7210 ha         1 ML7       0.114500
     34 H9          -5.2640     1.3600     1.8470 ha         1 ML7       0.116000
     35 H10          1.7900    -0.4800     2.0970 hn         1 ML7       0.322500
     36 H11          3.1830    -2.6610     1.8460 hn         1 ML7       0.474000
     37 H12          2.6850    -1.0970    -2.1930 ha         1 ML7       0.139000
     38 H13          1.7260     0.9380    -3.2430 ha         1 ML7       0.121500
     39 H14          2.0220     3.1670    -2.1680 ha         1 ML7       0.119000
     40 H15          3.2890     3.3590    -0.0310 ha         1 ML7       0.121500
     41 H16          4.2600     1.3420     1.0370 ha         1 ML7       0.139000
@<TRIPOS>BOND
     1     1     2 1   
     2     1    14 2   
     3     1    15 1   
     4     2     4 ar  
     5     2     5 ar  
     6     3     4 ar  
     7     3     7 ar  
     8     3     8 1   
     9     4    26 1   
    10     5     6 ar  
    11     5    27 1   
    12     6     7 ar  
    13     6    28 1   
    14     7    29 1   
    15     8    11 ar  
    16     8    13 ar  
    17     9    10 ar  
    18     9    12 ar  
    19     9    30 1   
    20    10    11 ar  
    21    10    31 1   
    22    11    32 1   
    23    12    13 ar  
    24    12    33 1   
    25    13    34 1   
    26    15    16 1   
    27    15    35 1   
    28    16    17 1   
    29    16    36 1   
    30    17    18 2   
    31    17    19 2   
    32    17    20 1   
    33    20    21 ar  
    34    20    25 ar  
    35    21    22 ar  
    36    21    37 1   
    37    22    23 ar  
    38    22    38 1   
    39    23    24 ar  
    40    23    39 1   
    41    24    25 ar  
    42    24    40 1   
    43    25    41 1   
@<TRIPOS>SUBSTRUCTURE
     1 ML7         1 TEMP              0 ****  ****    0 ROOT
