@<TRIPOS>MOLECULE
ML7
   41    43     1     0     0
SMALL
bcc


@<TRIPOS>ATOM
      1 C10         -0.0090    -1.1090     0.1880 c          1 ML7       0.701700
      2 C11         -0.9960    -0.0150    -0.0360 ca         1 ML7      -0.152600
      3 C12         -3.3280     0.6330    -0.1550 cp         1 ML7      -0.034000
      4 C13         -2.3480    -0.3340     0.0490 ca         1 ML7      -0.066000
      5 C14         -0.6110     1.2850    -0.3550 ca         1 ML7      -0.105000
      6 C15         -1.5800     2.2520    -0.5760 ca         1 ML7      -0.136000
      7 C16         -2.9240     1.9320    -0.4720 ca         1 ML7      -0.097000
      8 C20         -4.7590     0.2900    -0.0370 cp         1 ML7      -0.043000
      9 C21         -7.4730    -0.3610     0.1960 ca         1 ML7      -0.121000
     10 C22         -6.5820    -1.2650    -0.3680 ca         1 ML7      -0.128500
     11 C23         -5.2380    -0.9430    -0.4840 ca         1 ML7      -0.114500
     12 C25         -7.0080     0.8690     0.6430 ca         1 ML7      -0.128500
     13 C24         -5.6630     1.1910     0.5280 ca         1 ML7      -0.114500
     14 O19         -0.2440    -2.2660    -0.0850 o          1 ML7      -0.526100
     15 N09          1.1700    -0.6950     0.7320 ns         1 ML7      -0.447300
     16 N08          2.1770    -1.5910     0.9450 n7         1 ML7      -0.522100
     17 S07          3.4480    -1.4840    -0.1470 sy         1 ML7       1.271200
     18 O17          4.4300    -2.4350     0.3380 o          1 ML7      -0.583800
     19 O18          2.8620    -1.6210    -1.4650 o          1 ML7      -0.583800
     20 C06          4.0780     0.1600     0.0090 ca         1 ML7      -0.317500
     21 C01          3.5880     1.1560    -0.8260 ca         1 ML7      -0.037000
     22 C02          4.0540     2.4530    -0.6650 ca         1 ML7      -0.149000
     23 C03          4.9970     2.7390     0.3120 ca         1 ML7      -0.072000
     24 C04          5.4810     1.7310     1.1370 ca         1 ML7      -0.149000
     25 C05          5.0220     0.4310     0.9920 ca         1 ML7      -0.037000
     26 H1          -2.6370    -1.3430     0.3110 ha         1 ML7       0.156000
     27 H2           0.4330     1.5520    -0.4640 ha         1 ML7       0.129000
     28 H3          -1.2840     3.2570    -0.8440 ha         1 ML7       0.135000
     29 H4          -3.6670     2.6970    -0.6620 ha         1 ML7       0.138000
     30 H5          -8.5210    -0.6130     0.2860 ha         1 ML7       0.132000
     31 H6          -6.9350    -2.2230    -0.7280 ha         1 ML7       0.132500
     32 H7          -4.5600    -1.6520    -0.9440 ha         1 ML7       0.134000
     33 H8          -7.6910     1.5790     1.0910 ha         1 ML7       0.132500
     34 H9          -5.3140     2.1450     0.9010 ha         1 ML7       0.134000
     35 H10          1.2640     0.2320     1.1260 hn         1 ML7       0.322500
     36 H11          2.4700    -1.6630     1.9150 hn         1 ML7       0.418800
     37 H12          2.8660     0.9340    -1.6010 ha         1 ML7       0.157000
     38 H13          3.6810     3.2370    -1.3100 ha         1 ML7       0.139500
     39 H14          5.3610     3.7510     0.4300 ha         1 ML7       0.137000
     40 H15          6.2200     1.9530     1.8950 ha         1 ML7       0.139500
     41 H16          5.4020    -0.3510     1.6350 ha         1 ML7       0.157000
@<TRIPOS>BOND
     1     1     2 1   
     2     1    14 2   
     3     1    15 1   
     4     2     4 ar  
     5     2     5 ar  
     6     3     4 ar  
     7     3     7 ar  
     8     3     8 1   
     9     4    26 1   
    10     5     6 ar  
    11     5    27 1   
    12     6     7 ar  
    13     6    28 1   
    14     7    29 1   
    15     8    11 ar  
    16     8    13 ar  
    17     9    10 ar  
    18     9    12 ar  
    19     9    30 1   
    20    10    11 ar  
    21    10    31 1   
    22    11    32 1   
    23    12    13 ar  
    24    12    33 1   
    25    13    34 1   
    26    15    16 1   
    27    15    35 1   
    28    16    17 1   
    29    16    36 1   
    30    17    18 2   
    31    17    19 2   
    32    17    20 1   
    33    20    21 ar  
    34    20    25 ar  
    35    21    22 ar  
    36    21    37 1   
    37    22    23 ar  
    38    22    38 1   
    39    23    24 ar  
    40    23    39 1   
    41    24    25 ar  
    42    24    40 1   
    43    25    41 1   
@<TRIPOS>SUBSTRUCTURE
     1 ML7         1 TEMP              0 ****  ****    0 ROOT
