@<TRIPOS>MOLECULE
ML8
   51    54     1     0     0
SMALL
abcg2


@<TRIPOS>ATOM
      1 C24         -4.5970    -0.4370     1.6860 ca         1 ML8      -0.119000
      2 C25         -3.2230    -0.5190     1.5230 ca         1 ML8      -0.066000
      3 C23         -5.3540     0.3960     0.8720 ca         1 ML8      -0.082000
      4 C21         -3.3590     1.0750    -0.2640 ca         1 ML8      -0.083000
      5 C14         -2.5840     0.2440     0.5450 ca         1 ML8      -0.035800
      6 C1           0.9910     1.3770     0.1270 ca         1 ML8      -0.300800
      7 C22         -4.7380     1.1640    -0.1100 ca         1 ML8      -0.094300
      8 C6           1.7920     2.5310     0.0500 ca         1 ML8       0.224300
      9 C2           1.6620     0.1450     0.0130 ca         1 ML8       0.318900
     10 C4           3.6340     1.2340    -0.2190 ca         1 ML8       0.433900
     11 C9          -0.4120     1.3850     0.3150 cc         1 ML8      -0.047200
     12 C10         -1.1180     0.2340     0.3810 cd         1 ML8      -0.160400
     13 C11         -0.4370    -1.0500     0.2430 c          1 ML8       0.575200
     14 C16          2.2430    -4.5470     0.5260 c5         1 ML8      -0.077400
     15 C17          2.1110    -4.4400    -1.0160 c5         1 ML8      -0.077400
     16 C15          1.5890    -3.2830     1.1070 c5         1 ML8      -0.087900
     17 C18          1.3340    -3.1460    -1.2930 c5         1 ML8      -0.087900
     18 C8           1.6710    -2.3040    -0.0640 c5         1 ML8       0.093700
     19 C19          5.8260     2.3080    -0.4930 c3         1 ML8       0.232100
     20 C26         -5.5550     2.0210    -1.0330 c3         1 ML8       0.210900
     21 N5           3.0940     2.4620    -0.1220 nb         1 ML8      -0.271000
     22 N3           2.9690     0.0810    -0.1580 nb         1 ML8      -0.322000
     23 N7           0.9470    -1.0310     0.0790 n          1 ML8      -0.357300
     24 N20          4.9570     1.1620    -0.3910 nu         1 ML8      -0.916100
     25 O12         -1.0430    -2.1090     0.2580 o          1 ML8      -0.531000
     26 O27         -6.0190     1.2050    -2.0900 oh         1 ML8      -0.651000
     27 H24         -5.0820    -1.0210     2.4580 ha         1 ML8       0.114000
     28 H25         -2.6460    -1.1570     2.1780 ha         1 ML8       0.123000
     29 H23         -6.4270     0.4530     1.0090 ha         1 ML8       0.112000
     30 H21         -2.8740     1.6600    -1.0380 ha         1 ML8       0.110000
     31 H9          -0.9300     2.3310     0.4230 ha         1 ML8       0.188000
     32 H16          1.7680    -5.4480     0.9130 hc         1 ML8       0.041200
     33 H16A         3.2950    -4.6010     0.8100 hc         1 ML8       0.041200
     34 H17          3.1000    -4.3910    -1.4740 hc         1 ML8       0.041200
     35 H17A         1.6100    -5.3080    -1.4460 hc         1 ML8       0.041200
     36 H15          0.5570    -3.4830     1.3860 hc         1 ML8       0.058950
     37 H15A         2.1090    -2.9080     1.9900 hc         1 ML8       0.058950
     38 H18          1.6450    -2.6620    -2.2200 hc         1 ML8       0.058950
     39 H18A         0.2660    -3.3420    -1.3580 hc         1 ML8       0.058950
     40 H8           2.7150    -2.0150    -0.1590 h1         1 ML8       0.086700
     41 H13          0.6770     4.0200     1.1160 hc         1 ML8       0.060367
     42 H13A         1.9550     4.6560     0.0740 hc         1 ML8       0.060367
     43 H13B         0.4440     4.0600    -0.6230 hc         1 ML8       0.060367
     44 H19          5.7620     2.9440     0.3890 h1         1 ML8       0.043700
     45 H19A         6.8470     1.9470    -0.5820 h1         1 ML8       0.043700
     46 H26         -6.3890     2.4650    -0.4760 h1         1 ML8       0.021200
     47 H26A        -4.9400     2.8500    -1.4050 h1         1 ML8       0.021200
     48 HO27        -6.5760     1.7470    -2.6580 ho         1 ML8       0.438000
     49 H231         5.6020     2.9170    -1.3700 h1         1 ML8       0.043700
     50 H241         5.3540     0.2420    -0.4820 hn         1 ML8       0.511000
     51 C13          1.1860     3.8940     0.1600 c3         1 ML8      -0.159400
@<TRIPOS>BOND
     1     1     2 ar  
     2     1     3 ar  
     3     1    27 1   
     4     2     5 ar  
     5     2    28 1   
     6     3     7 ar  
     7     3    29 1   
     8     4     5 ar  
     9     4     7 ar  
    10     4    30 1   
    11     5    12 1   
    12     6     8 ar  
    13     6     9 ar  
    14     6    11 1   
    15     7    20 1   
    16     8    21 ar  
    17     8    51 1   
    18     9    22 ar  
    19     9    23 1   
    20    10    21 ar  
    21    10    22 ar  
    22    10    24 1   
    23    11    12 2   
    24    11    31 1   
    25    12    13 1   
    26    13    23 1   
    27    13    25 2   
    28    14    15 1   
    29    14    16 1   
    30    14    32 1   
    31    14    33 1   
    32    15    17 1   
    33    15    34 1   
    34    15    35 1   
    35    16    18 1   
    36    16    36 1   
    37    16    37 1   
    38    17    18 1   
    39    17    38 1   
    40    17    39 1   
    41    18    23 1   
    42    18    40 1   
    43    19    24 1   
    44    19    44 1   
    45    19    45 1   
    46    19    49 1   
    47    20    26 1   
    48    20    46 1   
    49    20    47 1   
    50    24    50 1   
    51    26    48 1   
    52    41    51 1   
    53    42    51 1   
    54    43    51 1   
@<TRIPOS>SUBSTRUCTURE
     1 ML8         1 TEMP              0 ****  ****    0 ROOT
