@<TRIPOS>MOLECULE
ML8
   51    54     1     0     0
SMALL
No Charge or Current Charge


@<TRIPOS>ATOM
      1 C24         -4.5880    -0.9070     1.4070 ca         1 ML8      -0.119000
      2 C25         -3.1900    -0.9010     1.2710 ca         1 ML8      -0.066000
      3 C23         -5.3630     0.0840     0.7860 ca         1 ML8      -0.082000
      4 C21         -3.3360     1.0930    -0.1020 ca         1 ML8      -0.083000
      5 C14         -2.5360     0.0960     0.5080 ca         1 ML8      -0.035800
      6 C1           1.0210     1.3760     0.0120 ca         1 ML8      -0.300800
      7 C22         -4.7390     1.0910     0.0300 ca         1 ML8      -0.094300
      8 C6           1.7180     2.5930    -0.1710 ca         1 ML8       0.224300
      9 C2           1.7750     0.1950    -0.0030 ca         1 ML8       0.318900
     10 C4           3.6700     1.4310    -0.3640 ca         1 ML8       0.433900
     11 C9          -0.4190     1.3440     0.2200 cc         1 ML8      -0.047200
     12 C10         -1.0500     0.1200     0.3720 cd         1 ML8      -0.160400
     13 C11         -0.2790    -1.1710     0.2460 c          1 ML8       0.575200
     14 C16          1.2900    -4.6610     0.5890 c5         1 ML8      -0.077400
     15 C17          2.1480    -4.5580    -0.7010 c5         1 ML8      -0.077400
     16 C15          1.6120    -3.3250     1.3280 c5         1 ML8      -0.087900
     17 C18          1.7960    -3.1230    -1.1670 c5         1 ML8      -0.087900
     18 C8           1.9930    -2.3420     0.1650 c5         1 ML8       0.093700
     19 C19          5.9280     2.5750    -0.7690 c3         1 ML8       0.232100
     20 C26         -5.5750     2.1710    -0.6460 c3         1 ML8       0.210900
     21 N5           3.0480     2.6170    -0.3590 nb         1 ML8      -0.271000
     22 N3           3.1090     0.2300    -0.2010 nb         1 ML8      -0.322000
     23 N7           1.1420    -1.0840     0.1470 n          1 ML8      -0.357300
     24 N20          5.0400     1.4160    -0.5600 nu         1 ML8      -0.916100
     25 O12         -0.8600    -2.2480     0.2030 o          1 ML8      -0.531000
     26 O27         -5.9230     1.7710    -1.9750 oh         1 ML8      -0.651000
     27 H24         -5.0710    -1.6780     2.0020 ha         1 ML8       0.114000
     28 H25         -2.6200    -1.6600     1.7980 ha         1 ML8       0.123000
     29 H23         -6.4450     0.0710     0.8950 ha         1 ML8       0.112000
     30 H21         -2.8800     1.8630    -0.7180 ha         1 ML8       0.110000
     31 H9          -0.9910     2.2630     0.3100 ha         1 ML8       0.188000
     32 H16          0.2230    -4.7400     0.3490 hc         1 ML8       0.041200
     33 H16A         1.5470    -5.5400     1.1910 hc         1 ML8       0.041200
     34 H17          3.2190    -4.6690    -0.4890 hc         1 ML8       0.041200
     35 H17A         1.8780    -5.3160    -1.4440 hc         1 ML8       0.041200
     36 H15          0.7910    -2.9880     1.9680 hc         1 ML8       0.058950
     37 H15A         2.4720    -3.4570     1.9950 hc         1 ML8       0.058950
     38 H18          2.4620    -2.7620    -1.9590 hc         1 ML8       0.058950
     39 H18A         0.7750    -3.0750    -1.5600 hc         1 ML8       0.058950
     40 H8           3.0610    -2.1190     0.2830 h1         1 ML8       0.086700
     41 H13          0.5420     4.1420     0.7910 hc         1 ML8       0.060367
     42 H13A         1.7290     4.7680    -0.3590 hc         1 ML8       0.060367
     43 H13B         0.2570     3.9930    -0.9550 hc         1 ML8       0.060367
     44 H19          5.8830     3.2560     0.0920 h1         1 ML8       0.043700
     45 H19A         6.9690     2.2460    -0.8940 h1         1 ML8       0.043700
     46 H26         -6.4820     2.3510    -0.0540 h1         1 ML8       0.021200
     47 H26A        -5.0050     3.1090    -0.6670 h1         1 ML8       0.021200
     48 HO27        -6.4590     2.5010    -2.3560 ho         1 ML8       0.438000
     49 H231         5.6310     3.1320    -1.6680 h1         1 ML8       0.043700
     50 H241         5.4650     0.4870    -0.5570 hn         1 ML8       0.511000
     51 C13          1.0240     3.9480    -0.1740 c3         1 ML8      -0.159400
@<TRIPOS>BOND
     1     1     2 ar  
     2     1     3 ar  
     3     1    27 1   
     4     2     5 ar  
     5     2    28 1   
     6     3     7 ar  
     7     3    29 1   
     8     4     5 ar  
     9     4     7 ar  
    10     4    30 1   
    11     5    12 1   
    12     6     8 ar  
    13     6     9 ar  
    14     6    11 1   
    15     7    20 1   
    16     8    21 ar  
    17     8    51 1   
    18     9    22 ar  
    19     9    23 1   
    20    10    21 ar  
    21    10    22 ar  
    22    10    24 1   
    23    11    12 2   
    24    11    31 1   
    25    12    13 1   
    26    13    23 1   
    27    13    25 2   
    28    14    15 1   
    29    14    16 1   
    30    14    32 1   
    31    14    33 1   
    32    15    17 1   
    33    15    34 1   
    34    15    35 1   
    35    16    18 1   
    36    16    36 1   
    37    16    37 1   
    38    17    18 1   
    39    17    38 1   
    40    17    39 1   
    41    18    23 1   
    42    18    40 1   
    43    19    24 1   
    44    19    44 1   
    45    19    45 1   
    46    19    49 1   
    47    20    26 1   
    48    20    46 1   
    49    20    47 1   
    50    24    50 1   
    51    26    48 1   
    52    41    51 1   
    53    42    51 1   
    54    43    51 1   
@<TRIPOS>SUBSTRUCTURE
     1 ML8         1 TEMP              0 ****  ****    0 ROOT
