@<TRIPOS>MOLECULE
ML9
   58    61     1     0     0
SMALL
No Charge or Current Charge


@<TRIPOS>ATOM
      1 C14          4.5480    -0.6660    -0.6350 ca         1 ML9      -0.041000
      2 C15          5.4960    -1.6980    -0.6550 ca         1 ML9      -0.191000
      3 C18          3.0850    -2.1910     0.5270 ca         1 ML9       0.415900
      4 C13          3.2920    -0.9030    -0.0340 ca         1 ML9      -0.126800
      5 C5           1.6290     2.5370     0.0110 ca         1 ML9      -0.301800
      6 C6           1.9810     3.9090    -0.0000 ca         1 ML9       0.227300
      7 C4           0.2610     2.2220     0.0170 ca         1 ML9       0.317900
      8 C16          5.1920    -2.9360    -0.0760 ca         1 ML9       0.587300
      9 C2          -0.2230     4.4570    -0.0070 ca         1 ML9       0.440900
     10 C10          2.6440     1.4920     0.0210 cc         1 ML9      -0.046200
     11 C9           2.2460     0.1650     0.0230 cd         1 ML9      -0.151400
     12 C8           0.7850    -0.2030    -0.0620 c          1 ML9       0.574200
     13 C23         -2.1720    -0.0220    -1.3230 c6         1 ML9      -0.081900
     14 C27         -2.0860    -0.3430     1.2400 c6         1 ML9      -0.081900
     15 C24         -3.7100    -0.2090    -1.2780 c6         1 ML9      -0.088900
     16 C26         -3.6260    -0.5290     1.2580 c6         1 ML9      -0.088900
     17 C22         -1.6430     0.5260     0.0290 c6         1 ML9       0.100700
     18 C25         -4.1480    -1.1070    -0.0910 c6         1 ML9       0.170300
     19 C20          5.9210    -5.2190     0.4520 c3         1 ML9       0.159900
     20 C30         -7.7150    -2.2400     0.5450 c3         1 ML9       0.162600
     21 N17          4.0070    -3.1820     0.5140 nb         1 ML9      -0.759000
     22 N1           1.0430     4.8730    -0.0090 nb         1 ML9      -0.275000
     23 N3          -0.6680     3.2010     0.0010 nb         1 ML9      -0.320000
     24 N7          -0.1660     0.8470     0.0070 n          1 ML9      -0.360300
     25 N12         -1.1710     5.4190    -0.0220 nv         1 ML9      -1.066900
     26 O11          0.4300    -1.3650    -0.2050 o          1 ML9      -0.536000
     27 O31         -8.0060    -2.8490    -0.7280 oh         1 ML9      -0.708000
     28 O19          6.1540    -3.9170    -0.1200 os         1 ML9      -0.461300
     29 O28         -5.5860    -1.2270    -0.1020 os         1 ML9      -0.451000
     30 H14          4.7870     0.2800    -1.1140 ha         1 ML9       0.117000
     31 H15          6.4650    -1.5490    -1.1210 ha         1 ML9       0.136000
     32 H18          2.1690    -2.4340     1.0610 h4         1 ML9       0.029100
     33 H10          3.6990     1.7410     0.0820 ha         1 ML9       0.188000
     34 H23         -1.7000    -0.9830    -1.5660 hc         1 ML9       0.058450
     35 H23A        -1.9080     0.6700    -2.1340 hc         1 ML9       0.058450
     36 H27         -1.7600     0.1310     2.1760 hc         1 ML9       0.058450
     37 H27A        -1.6150    -1.3330     1.2120 hc         1 ML9       0.058450
     38 H24         -4.1980     0.7720    -1.1970 hc         1 ML9       0.050700
     39 H24A        -4.0540    -0.6520    -2.2220 hc         1 ML9       0.050700
     40 H26         -3.8880    -1.1950     2.0890 hc         1 ML9       0.050700
     41 H26A        -4.1130     0.4350     1.4600 hc         1 ML9       0.050700
     42 H22         -2.2070     1.4550     0.1790 h1         1 ML9       0.087700
     43 H25         -3.7180    -2.1090    -0.2380 h1         1 ML9       0.039700
     44 H21          3.9610     4.0050    -0.8830 hc         1 ML9       0.061033
     45 H21A         3.4900     5.4850    -0.0400 hc         1 ML9       0.061033
     46 H21B         3.9530     4.0570     0.8930 hc         1 ML9       0.061033
     47 H20          5.7190    -5.1440     1.5290 h1         1 ML9       0.046367
     48 H20A         5.0670    -5.7120    -0.0300 h1         1 ML9       0.046367
     49 H20B         6.8030    -5.8590     0.3170 h1         1 ML9       0.046367
     50 H30         -8.1810    -2.8220     1.3520 h1         1 ML9       0.023200
     51 H30A        -8.1320    -1.2250     0.5910 h1         1 ML9       0.023200
     52 H29         -6.0330    -1.8530     1.8530 h1         1 ML9       0.028200
     53 H29A        -5.7480    -3.1690     0.6930 h1         1 ML9       0.028200
     54 HN12        -2.1190     5.1460    -0.2660 hn         1 ML9       0.510000
     55 HN1A        -0.8920     6.3640    -0.2740 hn         1 ML9       0.510000
     56 HO31        -8.9820    -2.7960    -0.8540 ho         1 ML9       0.499000
     57 C21          3.4240     4.3900    -0.0080 c3         1 ML9      -0.160400
     58 C29         -6.1870    -2.1700     0.8140 c3         1 ML9       0.163600
@<TRIPOS>BOND
     1     1     2 ar  
     2     1     4 ar  
     3     1    30 1   
     4     2     8 ar  
     5     2    31 1   
     6     3     4 ar  
     7     3    21 ar  
     8     3    32 1   
     9     4    11 1   
    10     5     6 ar  
    11     5     7 ar  
    12     5    10 1   
    13     6    22 ar  
    14     6    57 1   
    15     7    23 ar  
    16     7    24 1   
    17     8    21 ar  
    18     8    28 1   
    19     9    22 ar  
    20     9    23 ar  
    21     9    25 1   
    22    10    11 2   
    23    10    33 1   
    24    11    12 1   
    25    12    24 1   
    26    12    26 2   
    27    13    15 1   
    28    13    17 1   
    29    13    34 1   
    30    13    35 1   
    31    14    16 1   
    32    14    17 1   
    33    14    36 1   
    34    14    37 1   
    35    15    18 1   
    36    15    38 1   
    37    15    39 1   
    38    16    18 1   
    39    16    40 1   
    40    16    41 1   
    41    17    24 1   
    42    17    42 1   
    43    18    29 1   
    44    18    43 1   
    45    19    28 1   
    46    19    47 1   
    47    19    48 1   
    48    19    49 1   
    49    20    27 1   
    50    20    50 1   
    51    20    51 1   
    52    20    58 1   
    53    25    54 1   
    54    25    55 1   
    55    27    56 1   
    56    29    58 1   
    57    44    57 1   
    58    45    57 1   
    59    46    57 1   
    60    52    58 1   
    61    53    58 1   
@<TRIPOS>SUBSTRUCTURE
     1 ML9         1 TEMP              0 ****  ****    0 ROOT
