@<TRIPOS>MOLECULE
ML9
   58    61     1     0     0
SMALL
abcg2


@<TRIPOS>ATOM
      1 C14          4.2920    -0.8800    -1.0080 ca         1 ML9      -0.041000
      2 C15          5.2470    -1.8700    -1.0070 ca         1 ML9      -0.191000
      3 C18          3.1340    -2.0640     0.6860 ca         1 ML9       0.415900
      4 C13          3.1920    -0.9540    -0.1440 ca         1 ML9      -0.126800
      5 C5           1.6000     2.4630    -0.0170 ca         1 ML9      -0.301800
      6 C6           1.9050     3.8380     0.0120 ca         1 ML9       0.227300
      7 C4           0.2350     2.1300     0.0030 ca         1 ML9       0.317900
      8 C16          5.0740    -2.9390    -0.1210 ca         1 ML9       0.587300
      9 C2          -0.3110     4.3250     0.0650 ca         1 ML9       0.440900
     10 C10          2.5630     1.4260    -0.0460 cc         1 ML9      -0.046200
     11 C9           2.1940     0.1250    -0.0890 cd         1 ML9      -0.151400
     12 C8           0.7780    -0.2280    -0.1280 c          1 ML9       0.574200
     13 C23         -2.1290    -0.0140    -1.3120 c6         1 ML9      -0.081900
     14 C27         -1.9850    -0.4230     1.1840 c6         1 ML9      -0.081900
     15 C24         -3.6490    -0.1340    -1.2320 c6         1 ML9      -0.088900
     16 C26         -3.5090    -0.5060     1.2450 c6         1 ML9      -0.088900
     17 C22         -1.5860     0.4870     0.0240 c6         1 ML9       0.100700
     18 C25         -4.0780    -1.0260    -0.0750 c6         1 ML9       0.170300
     19 C20          5.8540    -4.9800     0.7800 c3         1 ML9       0.159900
     20 C30         -7.5330    -2.1680     0.4840 c3         1 ML9       0.162600
     21 N17          4.0480    -3.0290     0.6990 nb         1 ML9      -0.759000
     22 N1           0.9650     4.7550     0.0500 nb         1 ML9      -0.275000
     23 N3          -0.7080     3.0570     0.0430 nb         1 ML9      -0.320000
     24 N7          -0.1450     0.8080    -0.0200 n          1 ML9      -0.360300
     25 N12         -1.2570     5.2680     0.1020 nv         1 ML9      -1.066900
     26 O11          0.4010    -1.3830    -0.2520 o          1 ML9      -0.536000
     27 O31         -7.8310    -2.4800    -0.8570 oh         1 ML9      -0.708000
     28 O19          6.0040    -3.8950    -0.1240 os         1 ML9      -0.461300
     29 O28         -5.4890    -1.0780    -0.0750 os         1 ML9      -0.451000
     30 H14          4.3890    -0.0460    -1.6920 ha         1 ML9       0.117000
     31 H15          6.1000    -1.8330    -1.6710 ha         1 ML9       0.136000
     32 H18          2.3200    -2.1800     1.3910 h4         1 ML9       0.029100
     33 H10          3.6170     1.6790    -0.0220 ha         1 ML9       0.188000
     34 H23         -1.6930    -0.9800    -1.5690 hc         1 ML9       0.058450
     35 H23A        -1.8590     0.6860    -2.1060 hc         1 ML9       0.058450
     36 H27         -1.5980    -0.0180     2.1220 hc         1 ML9       0.058450
     37 H27A        -1.5770    -1.4260     1.0690 hc         1 ML9       0.058450
     38 H24         -4.0880     0.8610    -1.1010 hc         1 ML9       0.050700
     39 H24A        -4.0380    -0.5330    -2.1720 hc         1 ML9       0.050700
     40 H26         -3.7970    -1.1560     2.0750 hc         1 ML9       0.050700
     41 H26A        -3.9320     0.4840     1.4510 hc         1 ML9       0.050700
     42 H22         -2.0640     1.4460     0.2150 h1         1 ML9       0.087700
     43 H25         -3.6740    -2.0370    -0.2500 h1         1 ML9       0.039700
     44 H21          3.8500     3.9500    -0.8860 hc         1 ML9       0.061033
     45 H21A         3.3640     5.3930     0.0110 hc         1 ML9       0.061033
     46 H21B         3.8680     3.9330     0.8700 hc         1 ML9       0.061033
     47 H20          5.8500    -4.6450     1.8180 h1         1 ML9       0.046367
     48 H20A         4.9390    -5.5430     0.5910 h1         1 ML9       0.046367
     49 H20B         6.7130    -5.6250     0.6150 h1         1 ML9       0.046367
     50 H30         -7.9330    -2.9180     1.1780 h1         1 ML9       0.023200
     51 H30A        -7.9610    -1.2020     0.7820 h1         1 ML9       0.023200
     52 H29         -5.8420    -2.0180     1.7490 h1         1 ML9       0.028200
     53 H29A        -5.6000    -3.0950     0.3730 h1         1 ML9       0.028200
     54 HN12        -2.2300     5.0190     0.1120 hn         1 ML9       0.510000
     55 HN1A        -1.0040     6.2400     0.1140 hn         1 ML9       0.510000
     56 HO31        -8.7870    -2.4750    -0.9600 ho         1 ML9       0.499000
     57 C21          3.3250     4.3070     0.0000 c3         1 ML9      -0.160400
     58 C29         -6.0380    -2.1330     0.6760 c3         1 ML9       0.163600
@<TRIPOS>BOND
     1     1     2 ar  
     2     1     4 ar  
     3     1    30 1   
     4     2     8 ar  
     5     2    31 1   
     6     3     4 ar  
     7     3    21 ar  
     8     3    32 1   
     9     4    11 1   
    10     5     6 ar  
    11     5     7 ar  
    12     5    10 1   
    13     6    22 ar  
    14     6    57 1   
    15     7    23 ar  
    16     7    24 1   
    17     8    21 ar  
    18     8    28 1   
    19     9    22 ar  
    20     9    23 ar  
    21     9    25 1   
    22    10    11 2   
    23    10    33 1   
    24    11    12 1   
    25    12    24 1   
    26    12    26 2   
    27    13    15 1   
    28    13    17 1   
    29    13    34 1   
    30    13    35 1   
    31    14    16 1   
    32    14    17 1   
    33    14    36 1   
    34    14    37 1   
    35    15    18 1   
    36    15    38 1   
    37    15    39 1   
    38    16    18 1   
    39    16    40 1   
    40    16    41 1   
    41    17    24 1   
    42    17    42 1   
    43    18    29 1   
    44    18    43 1   
    45    19    28 1   
    46    19    47 1   
    47    19    48 1   
    48    19    49 1   
    49    20    27 1   
    50    20    50 1   
    51    20    51 1   
    52    20    58 1   
    53    25    54 1   
    54    25    55 1   
    55    27    56 1   
    56    29    58 1   
    57    44    57 1   
    58    45    57 1   
    59    46    57 1   
    60    52    58 1   
    61    53    58 1   
@<TRIPOS>SUBSTRUCTURE
     1 ML9         1 TEMP              0 ****  ****    0 ROOT
