@<TRIPOS>MOLECULE
MLA
    9     8     1     0     0
SMALL
bcc


@<TRIPOS>ATOM
      1 C1          -0.0970     0.1210     1.2600 c          1 MLA       0.945600
      2 O1A         -0.1830    -0.7930     2.1060 o          1 MLA      -0.891550
      3 O1B          0.6470     1.1230     1.3370 o          1 MLA      -0.891550
      4 C2          -0.9650     0.0310    -0.0020 c3         1 MLA      -0.311400
      5 C3          -0.0800    -0.1400    -1.2480 c          1 MLA       0.945600
      6 O3A          0.7660    -1.0580    -1.1950 o          1 MLA      -0.891550
      7 O3B         -0.2740     0.6240    -2.2160 o          1 MLA      -0.891550
      8 HC21        -1.6480    -0.8220     0.0600 hc         1 MLA      -0.008300
      9 HC22        -1.5780     0.9320    -0.0920 hc         1 MLA      -0.008300
@<TRIPOS>BOND
     1     1     2 1   
     2     1     3 1   
     3     1     4 1   
     4     4     5 1   
     5     4     8 1   
     6     4     9 1   
     7     5     6 1   
     8     5     7 1   
@<TRIPOS>SUBSTRUCTURE
     1 MLA         1 TEMP              0 ****  ****    0 ROOT
