@<TRIPOS>MOLECULE
MLA
    9     8     1     0     0
SMALL
No Charge or Current Charge


@<TRIPOS>ATOM
      1 C1          -0.1040     0.2660     1.1710 c          1 MLA       0.735000
      2 O1A          0.2570    -0.6770     1.8580 o          1 MLA      -0.786250
      3 O1B          0.2410     1.4170     1.3900 o          1 MLA      -0.786250
      4 C2          -1.0360    -0.0030     0.0000 c3         1 MLA      -0.311400
      5 C3          -0.0970    -0.2570    -1.1680 c          1 MLA       0.735000
      6 O3A          0.2670    -1.4030    -1.3860 o          1 MLA      -0.786250
      7 O3B          0.2510     0.6920    -1.8540 o          1 MLA      -0.786250
      8 HC21        -1.5880    -0.9310     0.2060 hc         1 MLA      -0.008300
      9 HC22        -1.6020     0.9150    -0.2070 hc         1 MLA      -0.008300
@<TRIPOS>BOND
     1     1     2 1   
     2     1     3 1   
     3     1     4 1   
     4     4     5 1   
     5     4     8 1   
     6     4     9 1   
     7     5     6 1   
     8     5     7 1   
@<TRIPOS>SUBSTRUCTURE
     1 MLA         1 TEMP              0 ****  ****    0 ROOT
