@<TRIPOS>MOLECULE
MLD
  120   122     1     0     0
SMALL
abcg2


@<TRIPOS>ATOM
      1 CAA         11.0460    -0.7270     1.6330 c3         1 MLD      -0.182100
      2 CAB         10.2200    -0.3660     0.4250 c          1 MLD       0.624100
      3 OAC          9.9560    -1.1860    -0.4450 o          1 MLD      -0.612100
      4 N2           9.7970     0.9120     0.3860 ns         1 MLD      -0.489900
      5 C2           8.8580     1.4150    -0.5820 c6         1 MLD       0.082700
      6 C3           9.1770     2.8520    -0.9750 c6         1 MLD       0.165300
      7 O3          10.4430     2.8730    -1.5770 oh         1 MLD      -0.646000
      8 C4           8.0920     3.3940    -1.9050 c6         1 MLD       0.097300
      9 O4           8.3880     4.7540    -2.1330 oh         1 MLD      -0.728000
     10 C5           6.7090     3.2120    -1.2650 c6         1 MLD       0.152300
     11 C6           5.5860     3.6400    -2.1840 c3         1 MLD       0.173600
     12 O6           4.3660     3.5290    -1.4930 oh         1 MLD      -0.703000
     13 O5           6.5190     1.8440    -0.9660 os         1 MLD      -0.458000
     14 C1           7.4340     1.3530    -0.0270 c6         1 MLD       0.379300
     15 O1           7.1310     0.0350     0.2110 os         1 MLD      -0.428000
     16 CA4          6.1010    -0.2300     1.1420 c6         1 MLD       0.120300
     17 CA5          6.7280    -0.5080     2.5070 c5         1 MLD       0.100300
     18 OA5          7.6060    -1.6180     2.3940 os         1 MLD      -0.467000
     19 CA6          5.7260    -1.0290     3.5370 c5         1 MLD       0.138600
     20 OA6          5.7360    -2.4340     3.3070 os         1 MLD      -0.441000
     21 CA1          6.7150    -2.6960     2.3360 c5         1 MLD       0.362300
     22 CA2          6.1040    -2.7630     0.9300 c6         1 MLD       0.061700
     23 NAD          7.1590    -3.0140    -0.0230 ns         1 MLD      -0.502900
     24 CAE          7.1330    -4.0260    -0.9120 c          1 MLD       0.599100
     25 CAF          8.3100    -4.0820    -1.8530 c3         1 MLD      -0.182100
     26 OAG          6.2260    -4.8450    -0.9720 o          1 MLD      -0.607100
     27 CA3          5.3410    -1.4590     0.6030 c6         1 MLD       0.158300
     28 OAH          4.0530    -1.5360     1.1630 os         1 MLD      -0.414000
     29 CAI          3.0110    -1.0500     0.3560 c3         1 MLD       0.079300
     30 CAJ          3.0640     0.4520     0.0820 c3         1 MLD      -0.132100
     31 CAL          1.7180    -1.3570     1.1060 c          1 MLD       0.609100
     32 OAM          1.6640    -1.3910     2.3240 o          1 MLD      -0.603100
     33 N            0.6550    -1.5250     0.3070 ns         1 MLD      -0.481900
     34 CA          -0.6960    -1.6510     0.7930 c3         1 MLD       0.018700
     35 CB          -1.2650    -0.3060     1.2590 c3         1 MLD      -0.107100
     36 C           -1.5520    -2.2180    -0.3390 c          1 MLD       0.595100
     37 O           -1.1560    -2.2130    -1.4980 o          1 MLD      -0.652100
     38 NAN         -2.7610    -2.6350     0.0380 ns         1 MLD      -0.432900
     39 CAO         -3.7190    -3.2490    -0.8520 c3         1 MLD      -0.051300
     40 CAP         -3.5350    -4.7880    -0.9510 c          1 MLD       0.717000
     41 OBA         -4.3780    -5.3740    -1.6590 o          1 MLD      -0.724500
     42 OAQ         -2.5770    -5.2930    -0.3440 o          1 MLD      -0.724500
     43 CBB         -5.1370    -2.8690    -0.4320 c3         1 MLD      -0.063400
     44 CBC         -5.3710    -1.3660    -0.4690 c3         1 MLD      -0.153400
     45 CBD         -6.7720    -0.9720    -0.0590 c          1 MLD       0.597100
     46 OBE         -7.4420    -1.6250     0.7290 o          1 MLD      -0.606100
     47 NBF         -7.2220     0.1800    -0.5870 ns         1 MLD      -0.491900
     48 CBG         -8.5310     0.6960    -0.2880 c3         1 MLD       0.030700
     49 CBH         -9.6170    -0.2170    -0.8680 c          1 MLD       0.586100
     50 OBI         -9.4410    -0.8410    -1.9060 o          1 MLD      -0.651100
     51 NBJ        -10.7560    -0.2170    -0.1750 ns         1 MLD      -0.466900
     52 CBK        -11.9490    -0.9480    -0.5420 c3         1 MLD      -0.036300
     53 CBL        -12.6770    -0.2970    -1.7160 c3         1 MLD      -0.079100
     54 CBM        -12.8860    -1.0430     0.6870 c          1 MLD       0.717000
     55 OBO        -12.5520    -0.4140     1.7110 o          1 MLD      -0.736500
     56 OBN        -13.9070    -1.7340     0.5280 o          1 MLD      -0.736500
     57 CBP         -8.6860     2.1090    -0.8540 c3         1 MLD      -0.087400
     58 CBQ         -7.7340     3.1170    -0.2200 c3         1 MLD      -0.079400
     59 CBR         -7.9730     4.5360    -0.7220 c3         1 MLD      -0.102400
     60 CBS         -7.0960     5.5980    -0.0350 c3         1 MLD       0.023500
     61 CBT         -7.5210     6.9850    -0.5610 c          1 MLD       0.725000
     62 OBV         -6.8090     7.5030    -1.4440 o          1 MLD      -0.743500
     63 OBU         -8.5770     7.4540    -0.0890 o          1 MLD      -0.743500
     64 NBW         -5.6640     5.4050    -0.1930 n8         1 MLD      -0.994200
     65 HAA1        11.4430     0.1390     2.1600 hc         1 MLD       0.060700
     66 HAA2        10.4150    -1.2850     2.3260 hc         1 MLD       0.060700
     67 HAA3        11.8720    -1.3730     1.3410 hc         1 MLD       0.060700
     68 HN2         10.0420     1.5160     1.1560 hn         1 MLD       0.305500
     69 H2           8.9040     0.7800    -1.4700 h1         1 MLD       0.116700
     70 H3           9.1670     3.4730    -0.0630 h1         1 MLD       0.035700
     71 HO3         10.6490     3.7860    -1.8030 ho         1 MLD       0.453000
     72 H4           8.1220     2.8190    -2.8410 h1         1 MLD       0.061700
     73 HO4          8.0780     5.0030    -3.0080 ho         1 MLD       0.513000
     74 H5           6.6700     3.8130    -0.3420 h1         1 MLD       0.059700
     75 H61          5.7740     4.6710    -2.5070 h1         1 MLD       0.024700
     76 H62          5.6050     3.0100    -3.0840 h1         1 MLD       0.024700
     77 HO6          3.6540     3.7040    -2.1140 ho         1 MLD       0.516000
     78 H1           7.3760     1.9590     0.8980 h2         1 MLD       0.016700
     79 HA4          5.4110     0.6160     1.2290 h1         1 MLD       0.077700
     80 HA5          7.2900     0.3570     2.8630 h1         1 MLD       0.070700
     81 HA61         4.7200    -0.6280     3.4130 h1         1 MLD       0.069200
     82 HA62         6.0660    -0.8150     4.5540 h1         1 MLD       0.069200
     83 HA1          7.2470    -3.6200     2.5760 h2         1 MLD       0.097700
     84 HA2          5.4030    -3.5960     0.8750 h1         1 MLD       0.122700
     85 HNAD         7.9330    -2.3650    -0.0610 hn         1 MLD       0.341500
     86 HAF1         9.0880    -3.3570    -1.6250 hc         1 MLD       0.059033
     87 HAF2         8.7450    -5.0800    -1.8320 hc         1 MLD       0.059033
     88 HAF3         7.9610    -3.9040    -2.8710 hc         1 MLD       0.059033
     89 HA3          5.2810    -1.3690    -0.4900 h1         1 MLD       0.072700
     90 HAI          3.0060    -1.5800    -0.6080 h1         1 MLD       0.053700
     91 HAJ1         3.9430     0.7420    -0.4930 hc         1 MLD       0.049700
     92 HAJ2         2.1930     0.7530    -0.5010 hc         1 MLD       0.049700
     93 HAJ3         3.0600     1.0220     1.0120 hc         1 MLD       0.049700
     94 HN           0.7680    -1.5000    -0.6970 hn         1 MLD       0.339500
     95 HA          -0.7080    -2.3520     1.6330 h1         1 MLD       0.083700
     96 HB1         -2.2760    -0.4180     1.6500 hc         1 MLD       0.043700
     97 HB2         -0.6460     0.1070     2.0530 hc         1 MLD       0.043700
     98 HB3         -1.2930     0.4070     0.4350 hc         1 MLD       0.043700
     99 HNAN        -2.9380    -2.7270     1.0270 hn         1 MLD       0.302500
    100 HAO         -3.5390    -2.8400    -1.8510 h1         1 MLD       0.062700
    101 HBB1        -5.3430    -3.2550     0.5710 hc         1 MLD       0.069200
    102 HBB2        -5.8300    -3.3690    -1.1070 hc         1 MLD       0.069200
    103 HBC1        -5.1460    -0.9750    -1.4650 hc         1 MLD       0.042200
    104 HBC2        -4.6820    -0.8570     0.2130 hc         1 MLD       0.042200
    105 HNBF        -6.6760     0.6340    -1.3010 hn         1 MLD       0.310500
    106 HBG         -8.6550     0.7490     0.7980 h1         1 MLD       0.070700
    107 HNBJ       -10.8100     0.2490     0.7200 hn         1 MLD       0.340500
    108 HBK        -11.6650    -1.9650    -0.8300 h1         1 MLD       0.053700
    109 HBL1       -12.0320    -0.2320    -2.5910 hc         1 MLD       0.020367
    110 HBL2       -13.5560    -0.8780    -1.9880 hc         1 MLD       0.020367
    111 HBL3       -13.0020     0.7130    -1.4590 hc         1 MLD       0.020367
    112 HBP1        -8.5490     2.0870    -1.9400 hc         1 MLD       0.051200
    113 HBP2        -9.7170     2.4290    -0.6810 hc         1 MLD       0.051200
    114 HBQ1        -7.8560     3.0890     0.8690 hc         1 MLD       0.028200
    115 HBQ2        -6.7000     2.8220    -0.4220 hc         1 MLD       0.028200
    116 HBR1        -7.8010     4.5750    -1.8050 hc         1 MLD       0.042700
    117 HBR2        -9.0240     4.7970    -0.5630 hc         1 MLD       0.042700
    118 HBS         -7.3220     5.5590     1.0370 h1         1 MLD       0.042700
    119 HBW1        -5.4110     4.4490     0.0260 hn         1 MLD       0.374500
    120 HBW2        -5.4220     5.5560    -1.1650 hn         1 MLD       0.374500
@<TRIPOS>BOND
     1     1     2 1   
     2     1    65 1   
     3     1    66 1   
     4     1    67 1   
     5     2     3 2   
     6     2     4 1   
     7     4     5 1   
     8     4    68 1   
     9     5     6 1   
    10     5    14 1   
    11     5    69 1   
    12     6     7 1   
    13     6     8 1   
    14     6    70 1   
    15     7    71 1   
    16     8     9 1   
    17     8    10 1   
    18     8    72 1   
    19     9    73 1   
    20    10    11 1   
    21    10    13 1   
    22    10    74 1   
    23    11    12 1   
    24    11    75 1   
    25    11    76 1   
    26    12    77 1   
    27    13    14 1   
    28    14    15 1   
    29    14    78 1   
    30    15    16 1   
    31    16    17 1   
    32    16    27 1   
    33    16    79 1   
    34    17    18 1   
    35    17    19 1   
    36    17    80 1   
    37    18    21 1   
    38    19    20 1   
    39    19    81 1   
    40    19    82 1   
    41    20    21 1   
    42    21    22 1   
    43    21    83 1   
    44    22    23 1   
    45    22    27 1   
    46    22    84 1   
    47    23    24 1   
    48    23    85 1   
    49    24    25 1   
    50    24    26 2   
    51    25    86 1   
    52    25    87 1   
    53    25    88 1   
    54    27    28 1   
    55    27    89 1   
    56    28    29 1   
    57    29    30 1   
    58    29    31 1   
    59    29    90 1   
    60    30    91 1   
    61    30    92 1   
    62    30    93 1   
    63    31    32 2   
    64    31    33 1   
    65    33    34 1   
    66    33    94 1   
    67    34    35 1   
    68    34    36 1   
    69    34    95 1   
    70    35    96 1   
    71    35    97 1   
    72    35    98 1   
    73    36    37 2   
    74    36    38 1   
    75    38    39 1   
    76    38    99 1   
    77    39    40 1   
    78    39    43 1   
    79    39   100 1   
    80    40    41 1   
    81    40    42 1   
    82    43    44 1   
    83    43   101 1   
    84    43   102 1   
    85    44    45 1   
    86    44   103 1   
    87    44   104 1   
    88    45    46 2   
    89    45    47 1   
    90    47    48 1   
    91    47   105 1   
    92    48    49 1   
    93    48    57 1   
    94    48   106 1   
    95    49    50 2   
    96    49    51 1   
    97    51    52 1   
    98    51   107 1   
    99    52    53 1   
   100    52    54 1   
   101    52   108 1   
   102    53   109 1   
   103    53   110 1   
   104    53   111 1   
   105    54    55 1   
   106    54    56 1   
   107    57    58 1   
   108    57   112 1   
   109    57   113 1   
   110    58    59 1   
   111    58   114 1   
   112    58   115 1   
   113    59    60 1   
   114    59   116 1   
   115    59   117 1   
   116    60    61 1   
   117    60    64 1   
   118    60   118 1   
   119    61    62 1   
   120    61    63 1   
   121    64   119 1   
   122    64   120 1   
@<TRIPOS>SUBSTRUCTURE
     1 MLD         1 TEMP              0 ****  ****    0 ROOT
