@<TRIPOS>MOLECULE
MLD
  120   122     1     0     0
SMALL
No Charge or Current Charge


@<TRIPOS>ATOM
      1 CAA         10.4030    -1.0980    -2.0610 c3         1 MLD      -0.182100
      2 CAB          9.0960    -0.3190    -2.1210 c          1 MLD       0.624100
      3 OAC          8.0850    -0.7670    -2.6410 o          1 MLD      -0.612100
      4 N2           9.1540     0.9340    -1.5580 ns         1 MLD      -0.489900
      5 C2           8.0250     1.8920    -1.4490 c6         1 MLD       0.082700
      6 C3           8.5500     3.3570    -1.3730 c6         1 MLD       0.165300
      7 O3           9.3180     3.7020    -2.5360 oh         1 MLD      -0.646000
      8 C4           7.3810     4.3720    -1.2040 c6         1 MLD       0.097300
      9 O4           7.9130     5.7140    -1.0980 oh         1 MLD      -0.728000
     10 C5           6.5400     3.9660     0.0480 c6         1 MLD       0.152300
     11 C6           5.2820     4.8720     0.2660 c3         1 MLD       0.173600
     12 O6           4.4750     4.4620     1.3870 oh         1 MLD      -0.703000
     13 O5           6.0900     2.5980    -0.1080 os         1 MLD      -0.458000
     14 C1           7.1520     1.6300    -0.1830 c6         1 MLD       0.379300
     15 O1           6.5530     0.3260    -0.2490 os         1 MLD      -0.428000
     16 CA4          5.9670    -0.1720     0.9770 c6         1 MLD       0.120300
     17 CA5          7.0520    -0.5220     2.0510 c5         1 MLD       0.100300
     18 OA5          7.8950    -1.5780     1.5460 os         1 MLD      -0.467000
     19 CA6          6.4610    -1.2090     3.3200 c5         1 MLD       0.138600
     20 OA6          6.5830    -2.6310     3.0330 os         1 MLD      -0.441000
     21 CA1          7.0830    -2.7550     1.6800 c5         1 MLD       0.362300
     22 CA2          5.9360    -2.7320     0.6020 c6         1 MLD       0.061700
     23 NAD          6.4800    -2.9760    -0.7590 ns         1 MLD      -0.502900
     24 CAE          7.0170    -4.1650    -1.1900 c          1 MLD       0.599100
     25 CAF          7.5660    -4.1610    -2.6080 c3         1 MLD      -0.182100
     26 OAG          7.0290    -5.1630    -0.4850 o          1 MLD      -0.607100
     27 CA3          5.0910    -1.4220     0.6470 c6         1 MLD       0.158300
     28 OAH          3.9810    -1.5710     1.5720 os         1 MLD      -0.414000
     29 CAI          2.6590    -1.1120     1.1700 c3         1 MLD       0.079300
     30 CAJ          2.6730     0.4290     1.0110 c3         1 MLD      -0.132100
     31 CAL          1.5740    -1.5500     2.2010 c          1 MLD       0.609100
     32 OAM          1.8170    -1.8200     3.3730 o          1 MLD      -0.603100
     33 N            0.3030    -1.6900     1.6770 ns         1 MLD      -0.481900
     34 CA          -0.8970    -2.1050     2.4380 c3         1 MLD       0.018700
     35 CB          -1.4120    -0.9450     3.3230 c3         1 MLD      -0.107100
     36 C           -1.9990    -2.6230     1.4680 c          1 MLD       0.595100
     37 O           -1.9230    -2.5020     0.2500 o          1 MLD      -0.652100
     38 NAN         -3.0690    -3.2430     2.0830 ns         1 MLD      -0.432900
     39 CAO         -4.2650    -3.7870     1.3940 c3         1 MLD      -0.051300
     40 CAP         -4.6770    -5.1500     2.0300 c          1 MLD       0.717000
     41 OBA         -4.7820    -6.1210     1.2940 o          1 MLD      -0.724500
     42 OAQ         -4.7950    -5.2140     3.2460 o          1 MLD      -0.724500
     43 CBB         -5.4470    -2.7830     1.4010 c3         1 MLD      -0.063400
     44 CBC         -5.1560    -1.4420     0.6800 c3         1 MLD      -0.153400
     45 CBD         -6.4050    -0.5540     0.6250 c          1 MLD       0.597100
     46 OBE         -6.8350     0.0370     1.6050 o          1 MLD      -0.606100
     47 NBF         -6.9910    -0.4570    -0.6170 ns         1 MLD      -0.491900
     48 CBG         -8.2000     0.3370    -0.9370 c3         1 MLD       0.030700
     49 CBH         -9.1250    -0.4600    -1.9070 c          1 MLD       0.586100
     50 OBI         -8.7560    -1.4580    -2.5180 o          1 MLD      -0.651100
     51 NBJ        -10.4090     0.0330    -2.0230 ns         1 MLD      -0.466900
     52 CBK        -11.4670    -0.5140    -2.9070 c3         1 MLD      -0.036300
     53 CBL        -11.2380    -0.1060    -4.3790 c3         1 MLD      -0.079100
     54 CBM        -12.8830    -0.0850    -2.4080 c          1 MLD       0.717000
     55 OBO        -13.0260     1.0440    -1.9560 o          1 MLD      -0.736500
     56 OBN        -13.7660    -0.9310    -2.3810 o          1 MLD      -0.736500
     57 CBP         -7.8270     1.7240    -1.5320 c3         1 MLD      -0.087400
     58 CBQ         -7.0270     2.6450    -0.5800 c3         1 MLD      -0.079400
     59 CBR         -6.7570     4.0460    -1.1860 c3         1 MLD      -0.102400
     60 CBS         -6.0230     5.0320    -0.2370 c3         1 MLD       0.023500
     61 CBT         -6.1090     6.5190    -0.7920 c          1 MLD       0.725000
     62 OBV         -5.4980     6.8000    -1.8170 o          1 MLD      -0.743500
     63 OBU         -6.7260     7.3500    -0.1370 o          1 MLD      -0.743500
     64 NBW         -4.6450     4.5130     0.0840 n8         1 MLD      -0.994200
     65 HAA1        11.2200    -0.4650    -2.4260 hc         1 MLD       0.060700
     66 HAA2        10.6730    -1.2470    -1.0090 hc         1 MLD       0.060700
     67 HAA3        10.3540    -2.0510    -2.5980 hc         1 MLD       0.060700
     68 HN2         10.0550     1.2160    -1.1920 hn         1 MLD       0.305500
     69 H2           7.3830     1.7880    -2.3360 h1         1 MLD       0.116700
     70 H3           9.1920     3.4370    -0.4830 h1         1 MLD       0.035700
     71 HO3          9.3740     4.6850    -2.5090 ho         1 MLD       0.453000
     72 H4           6.7310     4.2940    -2.0900 h1         1 MLD       0.061700
     73 HO4          7.2050     6.3430    -1.3770 ho         1 MLD       0.513000
     74 H5           7.1680     4.0320     0.9480 h1         1 MLD       0.059700
     75 H61          5.6210     5.9050     0.4140 h1         1 MLD       0.024700
     76 H62          4.6820     4.8520    -0.6540 h1         1 MLD       0.024700
     77 HO6          3.6800     5.0450     1.3960 ho         1 MLD       0.516000
     78 H1           7.7880     1.7080     0.7100 h2         1 MLD       0.016700
     79 HA4          5.3180     0.6130     1.3870 h1         1 MLD       0.077700
     80 HA5          7.6530     0.3610     2.3030 h1         1 MLD       0.070700
     81 HA61         5.4150    -0.9400     3.5190 h1         1 MLD       0.069200
     82 HA62         7.0540    -0.9770     4.2150 h1         1 MLD       0.069200
     83 HA1          7.6950    -3.6620     1.5850 h2         1 MLD       0.097700
     84 HA2          5.2590    -3.5680     0.8310 h1         1 MLD       0.122700
     85 HNAD         6.5830    -2.1840    -1.3890 hn         1 MLD       0.341500
     86 HAF1         8.4400    -3.5050    -2.6400 hc         1 MLD       0.059033
     87 HAF2         7.8240    -5.1660    -2.9620 hc         1 MLD       0.059033
     88 HAF3         6.8610    -3.6540    -3.2770 hc         1 MLD       0.059033
     89 HA3          4.6570    -1.2790    -0.3530 h1         1 MLD       0.072700
     90 HAI          2.3840    -1.5640     0.2080 h1         1 MLD       0.053700
     91 HAJ1         3.3150     0.7400     0.1780 hc         1 MLD       0.049700
     92 HAJ2         1.6630     0.7990     0.7990 hc         1 MLD       0.049700
     93 HAJ3         3.0220     0.9130     1.9310 hc         1 MLD       0.049700
     94 HN           0.1900    -1.4950     0.6870 hn         1 MLD       0.339500
     95 HA          -0.6230    -2.9480     3.0860 h1         1 MLD       0.083700
     96 HB1         -2.2780    -1.2600     3.9170 hc         1 MLD       0.043700
     97 HB2         -0.6340    -0.6070     4.0170 hc         1 MLD       0.043700
     98 HB3         -1.7140    -0.0910     2.7040 hc         1 MLD       0.043700
     99 HNAN        -3.0300    -3.3230     3.0930 hn         1 MLD       0.302500
    100 HAO         -3.9990    -3.9960     0.3500 h1         1 MLD       0.062700
    101 HBB1        -5.7450    -2.5790     2.4370 hc         1 MLD       0.069200
    102 HBB2        -6.3100    -3.2610     0.9180 hc         1 MLD       0.069200
    103 HBC1        -4.8070    -1.6620    -0.3360 hc         1 MLD       0.042200
    104 HBC2        -4.3740    -0.9070     1.2330 hc         1 MLD       0.042200
    105 HNBF        -6.5790    -1.0110    -1.3590 hn         1 MLD       0.310500
    106 HBG         -8.7760     0.4940    -0.0160 h1         1 MLD       0.070700
    107 HNBJ       -10.6370     0.8530    -1.4710 hn         1 MLD       0.340500
    108 HBK        -11.4240    -1.6090    -2.8440 h1         1 MLD       0.053700
    109 HBL1       -10.2660    -0.4640    -4.7390 hc         1 MLD       0.020367
    110 HBL2       -12.0160    -0.5350    -5.0200 hc         1 MLD       0.020367
    111 HBL3       -11.2650     0.9850    -4.4880 hc         1 MLD       0.020367
    112 HBP1        -7.2530     1.5740    -2.4560 hc         1 MLD       0.051200
    113 HBP2        -8.7480     2.2450    -1.8210 hc         1 MLD       0.051200
    114 HBQ1        -7.5830     2.7590     0.3590 hc         1 MLD       0.028200
    115 HBQ2        -6.0720     2.1650    -0.3340 hc         1 MLD       0.028200
    116 HBR1        -6.1880     3.9390    -2.1180 hc         1 MLD       0.042700
    117 HBR2        -7.7210     4.4920    -1.4620 hc         1 MLD       0.042700
    118 HBS         -6.5830     5.0340     0.7090 h1         1 MLD       0.042700
    119 HBW1        -4.7100     3.5070     0.2760 hn         1 MLD       0.374500
    120 HBW2        -4.0710     4.5670    -0.7650 hn         1 MLD       0.374500
@<TRIPOS>BOND
     1     1     2 1   
     2     1    65 1   
     3     1    66 1   
     4     1    67 1   
     5     2     3 2   
     6     2     4 1   
     7     4     5 1   
     8     4    68 1   
     9     5     6 1   
    10     5    14 1   
    11     5    69 1   
    12     6     7 1   
    13     6     8 1   
    14     6    70 1   
    15     7    71 1   
    16     8     9 1   
    17     8    10 1   
    18     8    72 1   
    19     9    73 1   
    20    10    11 1   
    21    10    13 1   
    22    10    74 1   
    23    11    12 1   
    24    11    75 1   
    25    11    76 1   
    26    12    77 1   
    27    13    14 1   
    28    14    15 1   
    29    14    78 1   
    30    15    16 1   
    31    16    17 1   
    32    16    27 1   
    33    16    79 1   
    34    17    18 1   
    35    17    19 1   
    36    17    80 1   
    37    18    21 1   
    38    19    20 1   
    39    19    81 1   
    40    19    82 1   
    41    20    21 1   
    42    21    22 1   
    43    21    83 1   
    44    22    23 1   
    45    22    27 1   
    46    22    84 1   
    47    23    24 1   
    48    23    85 1   
    49    24    25 1   
    50    24    26 2   
    51    25    86 1   
    52    25    87 1   
    53    25    88 1   
    54    27    28 1   
    55    27    89 1   
    56    28    29 1   
    57    29    30 1   
    58    29    31 1   
    59    29    90 1   
    60    30    91 1   
    61    30    92 1   
    62    30    93 1   
    63    31    32 2   
    64    31    33 1   
    65    33    34 1   
    66    33    94 1   
    67    34    35 1   
    68    34    36 1   
    69    34    95 1   
    70    35    96 1   
    71    35    97 1   
    72    35    98 1   
    73    36    37 2   
    74    36    38 1   
    75    38    39 1   
    76    38    99 1   
    77    39    40 1   
    78    39    43 1   
    79    39   100 1   
    80    40    41 1   
    81    40    42 1   
    82    43    44 1   
    83    43   101 1   
    84    43   102 1   
    85    44    45 1   
    86    44   103 1   
    87    44   104 1   
    88    45    46 2   
    89    45    47 1   
    90    47    48 1   
    91    47   105 1   
    92    48    49 1   
    93    48    57 1   
    94    48   106 1   
    95    49    50 2   
    96    49    51 1   
    97    51    52 1   
    98    51   107 1   
    99    52    53 1   
   100    52    54 1   
   101    52   108 1   
   102    53   109 1   
   103    53   110 1   
   104    53   111 1   
   105    54    55 1   
   106    54    56 1   
   107    57    58 1   
   108    57   112 1   
   109    57   113 1   
   110    58    59 1   
   111    58   114 1   
   112    58   115 1   
   113    59    60 1   
   114    59   116 1   
   115    59   117 1   
   116    60    61 1   
   117    60    64 1   
   118    60   118 1   
   119    61    62 1   
   120    61    63 1   
   121    64   119 1   
   122    64   120 1   
@<TRIPOS>SUBSTRUCTURE
     1 MLD         1 TEMP              0 ****  ****    0 ROOT
