@<TRIPOS>MOLECULE
MLE
   24    23     1     0     0
SMALL
bcc


@<TRIPOS>ATOM
      1 N           51.8560    48.4690    17.3290 n7         1 MLE      -0.804200
      2 CN          51.0100    48.8020    16.1990 c3         1 MLE       0.158100
      3 CA          52.9270    47.5280    17.0260 c3         1 MLE       0.023500
      4 CB          52.3800    46.2040    16.4940 c3         1 MLE      -0.047400
      5 CG          51.3120    45.5360    17.3630 c3         1 MLE      -0.061700
      6 CD1         50.8020    44.2690    16.6820 c3         1 MLE      -0.079600
      7 CD2         51.8290    45.2170    18.7620 c3         1 MLE      -0.079600
      8 C           54.0690    48.1060    16.1390 c          1 MLE       0.906600
      9 O           54.1330    49.3490    16.0400 o          1 MLE      -0.841300
     10 OXT         54.8700    47.2830    15.6510 o          1 MLE      -0.841300
     11 H           52.2980    49.3240    17.6400 hn         1 MLE       0.354800
     12 HN1         50.3720    49.6440    16.4690 h1         1 MLE       0.010700
     13 HN2         51.5500    49.0780    15.2840 h1         1 MLE       0.010700
     14 HN3         50.3450    47.9710    15.9510 h1         1 MLE       0.010700
     15 HA          53.4130    47.3090    17.9880 h1         1 MLE       0.036700
     16 HB2         51.9760    46.3460    15.4850 hc         1 MLE       0.039200
     17 HB3         53.2160    45.5110    16.3780 hc         1 MLE       0.039200
     18 HG          50.4660    46.2220    17.4680 hc         1 MLE       0.049700
     19 HD11        50.0090    43.7960    17.2650 hc         1 MLE       0.019200
     20 HD12        50.3990    44.4830    15.6900 hc         1 MLE       0.019200
     21 HD13        51.6040    43.5370    16.5610 hc         1 MLE       0.019200
     22 HD21        51.0740    44.6890    19.3480 hc         1 MLE       0.019200
     23 HD22        52.7160    44.5790    18.7160 hc         1 MLE       0.019200
     24 HD23        52.0960    46.1190    19.3130 hc         1 MLE       0.019200
@<TRIPOS>BOND
     1     1     2 1   
     2     1     3 1   
     3     1    11 1   
     4     2    12 1   
     5     2    13 1   
     6     2    14 1   
     7     3     4 1   
     8     3     8 1   
     9     3    15 1   
    10     4     5 1   
    11     4    16 1   
    12     4    17 1   
    13     5     6 1   
    14     5     7 1   
    15     5    18 1   
    16     6    19 1   
    17     6    20 1   
    18     6    21 1   
    19     7    22 1   
    20     7    23 1   
    21     7    24 1   
    22     8     9 1   
    23     8    10 1   
@<TRIPOS>SUBSTRUCTURE
     1 MLE         1 TEMP              0 ****  ****    0 ROOT
