@<TRIPOS>MOLECULE
MLE
   24    23     1     0     0
SMALL
No Charge or Current Charge


@<TRIPOS>ATOM
      1 N           51.7240    48.5380    17.1910 n7         1 MLE      -0.859400
      2 CN          51.0190    48.9470    15.9600 c3         1 MLE       0.158100
      3 CA          52.8690    47.5660    17.0210 c3         1 MLE       0.023500
      4 CB          52.3720    46.1640    16.5380 c3         1 MLE      -0.047400
      5 CG          51.3280    45.4520    17.4480 c3         1 MLE      -0.061700
      6 CD1         50.8130    44.1540    16.7850 c3         1 MLE      -0.079600
      7 CD2         51.8670    45.1610    18.8700 c3         1 MLE      -0.079600
      8 C           54.0720    48.1230    16.1480 c          1 MLE       0.696000
      9 O           54.8090    48.9550    16.6620 o          1 MLE      -0.736000
     10 OXT         54.2390    47.7090    15.0070 o          1 MLE      -0.736000
     11 H           52.1090    49.3920    17.6170 hn         1 MLE       0.410000
     12 HN1         50.2330    49.6760    16.1970 h1         1 MLE       0.010700
     13 HN2         51.7120    49.4150    15.2480 h1         1 MLE       0.010700
     14 HN3         50.5440    48.0880    15.4700 h1         1 MLE       0.010700
     15 HA          53.3140    47.4040    18.0110 h1         1 MLE       0.036700
     16 HB2         51.9570    46.2590    15.5270 hc         1 MLE       0.039200
     17 HB3         53.2450    45.5060    16.4420 hc         1 MLE       0.039200
     18 HG          50.4620    46.1170    17.5550 hc         1 MLE       0.049700
     19 HD11        50.0380    43.6840    17.4020 hc         1 MLE       0.019200
     20 HD12        50.3750    44.3670    15.8020 hc         1 MLE       0.019200
     21 HD13        51.6280    43.4340    16.6490 hc         1 MLE       0.019200
     22 HD21        51.1160    44.6260    19.4650 hc         1 MLE       0.019200
     23 HD22        52.7720    44.5440    18.8260 hc         1 MLE       0.019200
     24 HD23        52.1060    46.0900    19.4010 hc         1 MLE       0.019200
@<TRIPOS>BOND
     1     1     2 1   
     2     1     3 1   
     3     1    11 1   
     4     2    12 1   
     5     2    13 1   
     6     2    14 1   
     7     3     4 1   
     8     3     8 1   
     9     3    15 1   
    10     4     5 1   
    11     4    16 1   
    12     4    17 1   
    13     5     6 1   
    14     5     7 1   
    15     5    18 1   
    16     6    19 1   
    17     6    20 1   
    18     6    21 1   
    19     7    22 1   
    20     7    23 1   
    21     7    24 1   
    22     8     9 1   
    23     8    10 1   
@<TRIPOS>SUBSTRUCTURE
     1 MLE         1 TEMP              0 ****  ****    0 ROOT
