@<TRIPOS>MOLECULE
MLH
   47    49     1     0     0
SMALL
No Charge or Current Charge


@<TRIPOS>ATOM
      1 CAP         12.0740    -1.3800   -20.8620 c3         1 MLH      -0.121100
      2 CAO         11.8740    -0.0050   -20.1930 c3         1 MLH       0.169600
      3 OAM         13.1210     0.4100   -19.6000 os         1 MLH      -0.459100
      4 CAL         14.1240     0.8990   -20.3950 c          1 MLH       0.639300
      5 OAN         13.9720     1.0920   -21.5930 o          1 MLH      -0.501000
      6 CAI         15.3870     1.2280   -19.6800 cc         1 MLH      -0.228400
      7 CAH         15.6790     1.0370   -18.3150 cd         1 MLH       0.056700
      8 CAR         14.8470     0.4280   -17.1880 c3         1 MLH       0.210000
      9 NAY         14.2330     1.4350   -16.2760 n3         1 MLH      -0.726600
     10 CAZ         13.6610     0.8190   -15.0590 c3         1 MLH       0.152100
     11 CBA         13.2740     2.3360   -16.9550 c3         1 MLH       0.152100
     12 CAF         16.5750     1.7920   -20.2860 ca         1 MLH      -0.001800
     13 CAA         16.8700     2.1270   -21.6190 ca         1 MLH      -0.104000
     14 CAB         18.1470     2.6460   -21.9130 ca         1 MLH       0.147100
     15 OAJ         18.4560     2.9770   -23.2000 oh         1 MLH      -0.531100
     16 CAC         19.1020     2.8190   -20.8820 ca         1 MLH      -0.098900
     17 Br1         20.8450     3.5240   -21.2650 br         1 MLH      -0.106100
     18 CAD         18.7810     2.4740   -19.5530 ca         1 MLH      -0.047000
     19 CAE         17.5020     1.9600   -19.2960 ca         1 MLH      -0.091200
     20 NAG         16.9750     1.5720   -18.0820 na         1 MLH       0.021500
     21 CAQ         17.7020     0.9420   -17.0710 ca         1 MLH      -0.021200
     22 CAT         17.7000     1.4750   -15.7680 ca         1 MLH      -0.087000
     23 CAU         18.4290     0.8450   -14.7450 ca         1 MLH      -0.112000
     24 CAV         19.1670    -0.3190   -15.0220 ca         1 MLH      -0.099000
     25 CAW         19.1750    -0.8530   -16.3220 ca         1 MLH      -0.112000
     26 CAX         18.4450    -0.2240   -17.3450 ca         1 MLH      -0.087000
     27 H1          11.1170    -1.7540   -21.2450 hc         1 MLH       0.047700
     28 H2          12.7740    -1.3180   -21.7030 hc         1 MLH       0.047700
     29 H3          12.4590    -2.1080   -20.1380 hc         1 MLH       0.047700
     30 H4          11.5080     0.7300   -20.9230 h1         1 MLH       0.056200
     31 H5          11.1090    -0.1060   -19.4130 h1         1 MLH       0.056200
     32 H6          14.0800    -0.2400   -17.5930 h1         1 MLH       0.061700
     33 H7          15.5030    -0.2320   -16.6060 h1         1 MLH       0.061700
     34 H9          13.2900     1.5900   -14.3710 h1         1 MLH       0.034200
     35 H10         12.8250     0.1520   -15.3130 h1         1 MLH       0.034200
     36 H11         14.4210     0.2310   -14.5270 h1         1 MLH       0.034200
     37 H12         12.9050     3.1020   -16.2600 h1         1 MLH       0.034200
     38 H13         13.7480     2.8540   -17.7990 h1         1 MLH       0.034200
     39 H14         12.4100     1.7750   -17.3350 h1         1 MLH       0.034200
     40 H15         16.1460     1.9910   -22.4160 ha         1 MLH       0.159000
     41 H16         19.3780     3.3170   -23.2080 ho         1 MLH       0.475000
     42 H17         19.5030     2.6050   -18.7500 ha         1 MLH       0.137000
     43 H18         17.1250     2.3730   -15.5490 ha         1 MLH       0.135500
     44 H19         18.4220     1.2580   -13.7390 ha         1 MLH       0.120000
     45 H20         19.7320    -0.8060   -14.2290 ha         1 MLH       0.118000
     46 H21         19.7470    -1.7530   -16.5360 ha         1 MLH       0.120000
     47 H22         18.4550    -0.6420   -18.3500 ha         1 MLH       0.135500
@<TRIPOS>BOND
     1     1     2 1   
     2     1    27 1   
     3     1    28 1   
     4     1    29 1   
     5     2     3 1   
     6     2    30 1   
     7     2    31 1   
     8     3     4 1   
     9     4     5 2   
    10     4     6 1   
    11     6     7 2   
    12     6    12 1   
    13     7     8 1   
    14     7    20 1   
    15     8     9 1   
    16     8    32 1   
    17     8    33 1   
    18     9    10 1   
    19     9    11 1   
    20    10    34 1   
    21    10    35 1   
    22    10    36 1   
    23    11    37 1   
    24    11    38 1   
    25    11    39 1   
    26    12    13 ar  
    27    12    19 ar  
    28    13    14 ar  
    29    13    40 1   
    30    14    15 1   
    31    14    16 ar  
    32    15    41 1   
    33    16    17 1   
    34    16    18 ar  
    35    18    19 ar  
    36    18    42 1   
    37    19    20 1   
    38    20    21 1   
    39    21    22 ar  
    40    21    26 ar  
    41    22    23 ar  
    42    22    43 1   
    43    23    24 ar  
    44    23    44 1   
    45    24    25 ar  
    46    24    45 1   
    47    25    26 ar  
    48    25    46 1   
    49    26    47 1   
@<TRIPOS>SUBSTRUCTURE
     1 MLH         1 TEMP              0 ****  ****    0 ROOT
