@<TRIPOS>MOLECULE
MLH
   47    49     1     0     0
SMALL
bcc


@<TRIPOS>ATOM
      1 CAP         11.7240    -1.0230   -21.2010 c3         1 MLH      -0.121100
      2 CAO         11.7960     0.2390   -20.3700 c3         1 MLH       0.146400
      3 OAM         13.0820     0.4170   -19.7630 os         1 MLH      -0.435900
      4 CAL         14.0580     0.9630   -20.4790 c          1 MLH       0.688300
      5 OAN         13.9140     1.3260   -21.6270 o          1 MLH      -0.550000
      6 CAI         15.3170     1.0940   -19.7580 cc         1 MLH      -0.228400
      7 CAH         15.6330     0.7410   -18.4540 cd         1 MLH       0.056700
      8 CAR         14.8390     0.1220   -17.3470 c3         1 MLH       0.210000
      9 NAY         14.4740     1.1140   -16.3510 n3         1 MLH      -0.726600
     10 CAZ         14.1520     0.4960   -15.0840 c3         1 MLH       0.152100
     11 CBA         13.4240     2.0010   -16.8000 c3         1 MLH       0.152100
     12 CAF         16.5030     1.6600   -20.3430 ca         1 MLH      -0.001800
     13 CAA         16.8230     2.1950   -21.5900 ca         1 MLH      -0.122000
     14 CAB         18.1050     2.6690   -21.8280 ca         1 MLH       0.147100
     15 OAJ         18.3490     3.1710   -23.0530 oh         1 MLH      -0.492100
     16 CAC         19.0690     2.6050   -20.8010 ca         1 MLH      -0.098900
     17 BR1         20.8180     3.2470   -21.1230 br         1 MLH      -0.106100
     18 CAD         18.7790     2.0830   -19.5540 ca         1 MLH      -0.065000
     19 CAE         17.4920     1.6170   -19.3490 ca         1 MLH      -0.091200
     20 NAG         16.9370     1.0590   -18.2190 na         1 MLH       0.021500
     21 CAQ         17.6700     0.7930   -17.0300 ca         1 MLH      -0.021200
     22 CAT         17.5530     1.6390   -15.9360 ca         1 MLH      -0.105000
     23 CAU         18.2940     1.3770   -14.7930 ca         1 MLH      -0.130000
     24 CAV         19.1500     0.2840   -14.7490 ca         1 MLH      -0.117000
     25 CAW         19.2660    -0.5530   -15.8500 ca         1 MLH      -0.130000
     26 CAX         18.5250    -0.3010   -16.9960 ca         1 MLH      -0.105000
     27 H1          10.7070    -1.1490   -21.5710 hc         1 MLH       0.047700
     28 H2          12.3890    -0.9840   -22.0630 hc         1 MLH       0.047700
     29 H3          11.9740    -1.9030   -20.6070 hc         1 MLH       0.047700
     30 H4          11.5320     1.1170   -20.9620 h1         1 MLH       0.056200
     31 H5          11.1050     0.1830   -19.5300 h1         1 MLH       0.056200
     32 H6          13.9760    -0.4170   -17.7500 h1         1 MLH       0.061700
     33 H7          15.4730    -0.6250   -16.8610 h1         1 MLH       0.061700
     34 H9          13.9320     1.2660   -14.3450 h1         1 MLH       0.034200
     35 H10         13.2850    -0.1800   -15.1320 h1         1 MLH       0.034200
     36 H11         15.0080    -0.0760   -14.7220 h1         1 MLH       0.034200
     37 H12         13.2590     2.7770   -16.0520 h1         1 MLH       0.034200
     38 H13         13.7120     2.4970   -17.7270 h1         1 MLH       0.034200
     39 H14         12.4660     1.4900   -16.9760 h1         1 MLH       0.034200
     40 H15         16.0910     2.2530   -22.3830 ha         1 MLH       0.177000
     41 H16         19.2490     3.5080   -23.1400 ho         1 MLH       0.436000
     42 H17         19.5270     2.0430   -18.7740 ha         1 MLH       0.155000
     43 H18         16.8790     2.4820   -15.9770 ha         1 MLH       0.153500
     44 H19         18.2040     2.0310   -13.9360 ha         1 MLH       0.138000
     45 H20         19.7280     0.0850   -13.8550 ha         1 MLH       0.136000
     46 H21         19.9320    -1.4050   -15.8200 ha         1 MLH       0.138000
     47 H22         18.6040    -0.9510   -17.8570 ha         1 MLH       0.153500
@<TRIPOS>BOND
     1     1     2 1   
     2     1    27 1   
     3     1    28 1   
     4     1    29 1   
     5     2     3 1   
     6     2    30 1   
     7     2    31 1   
     8     3     4 1   
     9     4     5 2   
    10     4     6 1   
    11     6     7 2   
    12     6    12 1   
    13     7     8 1   
    14     7    20 1   
    15     8     9 1   
    16     8    32 1   
    17     8    33 1   
    18     9    10 1   
    19     9    11 1   
    20    10    34 1   
    21    10    35 1   
    22    10    36 1   
    23    11    37 1   
    24    11    38 1   
    25    11    39 1   
    26    12    13 ar  
    27    12    19 ar  
    28    13    14 ar  
    29    13    40 1   
    30    14    15 1   
    31    14    16 ar  
    32    15    41 1   
    33    16    17 1   
    34    16    18 ar  
    35    18    19 ar  
    36    18    42 1   
    37    19    20 1   
    38    20    21 1   
    39    21    22 ar  
    40    21    26 ar  
    41    22    23 ar  
    42    22    43 1   
    43    23    24 ar  
    44    23    44 1   
    45    24    25 ar  
    46    24    45 1   
    47    25    26 ar  
    48    25    46 1   
    49    26    47 1   
@<TRIPOS>SUBSTRUCTURE
     1 MLH         1 TEMP              0 ****  ****    0 ROOT
