@<TRIPOS>MOLECULE
MLI
    9     8     1     0     0
SMALL
No Charge or Current Charge


@<TRIPOS>ATOM
      1 C1           0.0190     1.0230    -0.0380 c3         1 MLI      -0.308400
      2 C2           1.1780     0.0840     0.2560 c          1 MLI       0.733000
      3 C3          -1.1620     0.0940    -0.2680 c          1 MLI       0.733000
      4 O6           1.3930    -0.2330     1.4160 o          1 MLI      -0.785750
      5 O7           1.8610    -0.3100    -0.6770 o          1 MLI      -0.785750
      6 O8          -1.3850    -0.2970    -1.4030 o          1 MLI      -0.785750
      7 O9          -1.8530    -0.2190     0.6900 o          1 MLI      -0.785750
      8 H11         -0.1800     1.6170     0.8660 hc         1 MLI      -0.007300
      9 H12          0.2320     1.5480    -0.9800 hc         1 MLI      -0.007300
@<TRIPOS>BOND
     1     1     2 1   
     2     1     3 1   
     3     1     8 1   
     4     1     9 1   
     5     2     4 1   
     6     2     5 1   
     7     3     6 1   
     8     3     7 1   
@<TRIPOS>SUBSTRUCTURE
     1 MLI         1 TEMP              0 ****  ****    0 ROOT
