@<TRIPOS>MOLECULE
MLI
    9     8     1     0     0
SMALL
abcg2


@<TRIPOS>ATOM
      1 C1           0.0100     0.9140     0.1060 c3         1 MLI      -0.308400
      2 C2           1.3010     0.0980     0.0660 c          1 MLI       0.733000
      3 C3          -1.2470     0.0760    -0.2100 c          1 MLI       0.733000
      4 O6           1.5590    -0.5870     1.0810 o          1 MLI      -0.785750
      5 O7           1.9820     0.1370    -0.9810 o          1 MLI      -0.785750
      6 O8          -1.0920    -0.9780    -0.8570 o          1 MLI      -0.785750
      7 O9          -2.3340     0.5390     0.1930 o          1 MLI      -0.785750
      8 H11         -0.1200     1.3780     1.0880 hc         1 MLI      -0.007300
      9 H12          0.0450     1.7310    -0.6230 hc         1 MLI      -0.007300
@<TRIPOS>BOND
     1     1     2 1   
     2     1     3 1   
     3     1     8 1   
     4     1     9 1   
     5     2     4 1   
     6     2     5 1   
     7     3     6 1   
     8     3     7 1   
@<TRIPOS>SUBSTRUCTURE
     1 MLI         1 TEMP              0 ****  ****    0 ROOT
