@<TRIPOS>MOLECULE
MLJ
   50    52     1     0     0
SMALL
No Charge or Current Charge


@<TRIPOS>ATOM
      1 C02          7.9260    -0.2780    -1.0600 c3         1 MLJ       0.516000
      2 C06          5.4800     0.1320    -0.7830 ca         1 MLJ       0.109100
      3 C07          5.3460    -0.6820     0.3630 ca         1 MLJ      -0.109000
      4 C08          4.0930    -0.8270     0.9850 ca         1 MLJ      -0.066500
      5 C09          2.9490    -0.1670     0.4820 ca         1 MLJ      -0.139600
      6 C10          3.0940     0.6470    -0.6670 ca         1 MLJ      -0.066500
      7 C11          4.3480     0.7900    -1.2870 ca         1 MLJ      -0.109000
      8 C12          1.6160    -0.3520     1.1830 c          1 MLJ       0.608700
      9 C15         -0.8340     0.2460     1.1690 c3         1 MLJ       0.115000
     10 C16         -1.5520    -1.0300     0.6960 c3         1 MLJ      -0.183400
     11 C17         -2.9860    -1.0600     1.2200 c          1 MLJ       0.603100
     12 C20         -5.4020    -0.7960     0.5180 c6         1 MLJ       0.156000
     13 C21         -6.0310    -2.1430     0.0910 c6         1 MLJ      -0.091400
     14 C22         -7.5670    -2.0480     0.0510 c6         1 MLJ      -0.070400
     15 C23         -8.0070    -1.0110    -1.0040 c6         1 MLJ      -0.035100
     16 C24         -7.2560     0.3210    -0.8910 ca         1 MLJ      -0.061300
     17 C25         -7.8020     1.4600    -1.5140 ca         1 MLJ      -0.114000
     18 C26         -7.1530     2.7020    -1.4270 ca         1 MLJ      -0.102000
     19 C27         -5.9520     2.8140    -0.7120 ca         1 MLJ      -0.115000
     20 C28         -5.3950     1.6840    -0.0920 ca         1 MLJ      -0.099000
     21 C29         -6.0290     0.4240    -0.1870 ca         1 MLJ      -0.097300
     22 F01          8.9170     0.0940    -1.9000 f          1 MLJ      -0.107000
     23 F03          7.8710    -1.6300    -1.0930 f          1 MLJ      -0.107000
     24 F04          8.3050     0.0940     0.1840 f          1 MLJ      -0.107000
     25 N14          0.5360     0.3220     0.6520 ns         1 MLJ      -0.507900
     26 N19         -3.9550    -0.8310     0.2730 ns         1 MLJ      -0.504900
     27 O05          6.6760     0.3260    -1.4510 os         1 MLJ      -0.405100
     28 O13          1.4960    -1.0590     2.1740 o          1 MLJ      -0.586100
     29 O18         -3.2530    -1.2980     2.3880 o          1 MLJ      -0.593100
     30 H071         6.1940    -1.2100     0.7880 ha         1 MLJ       0.139000
     31 H081         4.0170    -1.4610     1.8660 ha         1 MLJ       0.132500
     32 H101         2.2480     1.1770    -1.0970 ha         1 MLJ       0.132500
     33 H111         4.4440     1.4190    -2.1690 ha         1 MLJ       0.139000
     34 H152        -1.3890     1.1300     0.8220 h1         1 MLJ       0.072200
     35 H151        -0.8090     0.2760     2.2670 h1         1 MLJ       0.072200
     36 H161        -1.5470    -1.0490    -0.4000 hc         1 MLJ       0.060200
     37 H162        -1.0150    -1.9010     1.0880 hc         1 MLJ       0.060200
     38 H201        -5.5770    -0.6660     1.5970 h1         1 MLJ       0.092700
     39 H211        -5.6600    -2.4330    -0.9020 hc         1 MLJ       0.048700
     40 H212        -5.7190    -2.9350     0.7850 hc         1 MLJ       0.048700
     41 H222        -8.0040    -3.0280    -0.1830 hc         1 MLJ       0.048700
     42 H221        -7.9490    -1.7600     1.0410 hc         1 MLJ       0.048700
     43 H231        -7.8440    -1.4240    -2.0090 hc         1 MLJ       0.050200
     44 H232        -9.0890    -0.8410    -0.9160 hc         1 MLJ       0.050200
     45 H251        -8.7370     1.3840    -2.0640 ha         1 MLJ       0.111000
     46 H261        -7.5840     3.5770    -1.9090 ha         1 MLJ       0.114000
     47 H271        -5.4520     3.7770    -0.6360 ha         1 MLJ       0.114000
     48 H281        -4.4680     1.7910     0.4670 ha         1 MLJ       0.115000
     49 H141         0.7090     0.8950    -0.1630 hn         1 MLJ       0.310500
     50 H191        -3.6320    -0.6520    -0.6700 hn         1 MLJ       0.310500
@<TRIPOS>BOND
     1     1    22 1   
     2     1    23 1   
     3     1    24 1   
     4     1    27 1   
     5     2     3 ar  
     6     2     7 ar  
     7     2    27 1   
     8     3     4 ar  
     9     3    30 1   
    10     4     5 ar  
    11     4    31 1   
    12     5     6 ar  
    13     5     8 1   
    14     6     7 ar  
    15     6    32 1   
    16     7    33 1   
    17     8    25 1   
    18     8    28 2   
    19     9    10 1   
    20     9    25 1   
    21     9    34 1   
    22     9    35 1   
    23    10    11 1   
    24    10    36 1   
    25    10    37 1   
    26    11    26 1   
    27    11    29 2   
    28    12    13 1   
    29    12    21 1   
    30    12    26 1   
    31    12    38 1   
    32    13    14 1   
    33    13    39 1   
    34    13    40 1   
    35    14    15 1   
    36    14    41 1   
    37    14    42 1   
    38    15    16 1   
    39    15    43 1   
    40    15    44 1   
    41    16    17 ar  
    42    16    21 ar  
    43    17    18 ar  
    44    17    45 1   
    45    18    19 ar  
    46    18    46 1   
    47    19    20 ar  
    48    19    47 1   
    49    20    21 ar  
    50    20    48 1   
    51    25    49 1   
    52    26    50 1   
@<TRIPOS>SUBSTRUCTURE
     1 MLJ         1 TEMP              0 ****  ****    0 ROOT
