@<TRIPOS>MOLECULE
MLJ
   50    52     1     0     0
SMALL
abcg2


@<TRIPOS>ATOM
      1 C02          7.6620    -0.6750    -1.3050 c3         1 MLJ       0.516000
      2 C06          5.5990     0.1450    -0.5760 ca         1 MLJ       0.109100
      3 C07          5.5340     0.4560     0.7720 ca         1 MLJ      -0.109000
      4 C08          4.3290     0.3010     1.4370 ca         1 MLJ      -0.066500
      5 C09          3.1960    -0.1410     0.7600 ca         1 MLJ      -0.139600
      6 C10          3.2880    -0.4440    -0.5960 ca         1 MLJ      -0.066500
      7 C11          4.4910    -0.3070    -1.2700 ca         1 MLJ      -0.109000
      8 C12          1.9260    -0.3010     1.5350 c          1 MLJ       0.608700
      9 C15         -0.5160    -0.2750     1.4550 c3         1 MLJ       0.115000
     10 C16         -1.5780    -0.3480     0.3730 c3         1 MLJ      -0.183400
     11 C17         -2.9720    -0.5250     0.9390 c          1 MLJ       0.603100
     12 C20         -5.3590    -0.5750     0.3170 c6         1 MLJ       0.156000
     13 C21         -5.7900    -1.9680    -0.1350 c6         1 MLJ      -0.091400
     14 C22         -7.2930    -2.1290     0.0090 c6         1 MLJ      -0.070400
     15 C23         -8.0100    -1.1650    -0.9250 c6         1 MLJ      -0.035100
     16 C24         -7.4640     0.2390    -0.8520 ca         1 MLJ      -0.061300
     17 C25         -8.2220     1.2880    -1.3750 ca         1 MLJ      -0.114000
     18 C26         -7.7640     2.5940    -1.3510 ca         1 MLJ      -0.102000
     19 C27         -6.5240     2.8730    -0.7900 ca         1 MLJ      -0.115000
     20 C28         -5.7630     1.8410    -0.2670 ca         1 MLJ      -0.099000
     21 C29         -6.2140     0.5200    -0.2940 ca         1 MLJ      -0.097300
     22 F01          8.7000    -0.2840    -2.0250 f          1 MLJ      -0.107000
     23 F03          7.1440    -1.7680    -1.8690 f          1 MLJ      -0.107000
     24 F04          8.0980    -1.0350    -0.0970 f          1 MLJ      -0.107000
     25 N14          0.7890    -0.1530     0.8380 ns         1 MLJ      -0.507900
     26 N19         -3.9570    -0.3450     0.0420 ns         1 MLJ      -0.504900
     27 O05          6.7920     0.3430    -1.2580 os         1 MLJ      -0.405100
     28 O13          1.9440    -0.5570     2.7310 o          1 MLJ      -0.586100
     29 O18         -3.1720    -0.8110     2.1110 o          1 MLJ      -0.593100
     30 H071         6.4050     0.8250     1.2960 ha         1 MLJ       0.139000
     31 H081         4.2730     0.5340     2.4920 ha         1 MLJ       0.132500
     32 H101         2.4320    -0.8210    -1.1400 ha         1 MLJ       0.132500
     33 H111         4.5570    -0.5400    -2.3250 ha         1 MLJ       0.139000
     34 H152        -0.7050     0.5710     2.1210 h1         1 MLJ       0.072200
     35 H151        -0.5390    -1.1770     2.0660 h1         1 MLJ       0.072200
     36 H161        -1.5520     0.5510    -0.2500 hc         1 MLJ       0.060200
     37 H162        -1.3720    -1.1900    -0.2960 hc         1 MLJ       0.060200
     38 H201        -5.4730    -0.5220     1.4040 h1         1 MLJ       0.092700
     39 H211        -5.5000    -2.1160    -1.1810 hc         1 MLJ       0.048700
     40 H212        -5.2540    -2.7140     0.4540 hc         1 MLJ       0.048700
     41 H222        -7.5930    -3.1540    -0.2140 hc         1 MLJ       0.048700
     42 H221        -7.5880    -1.9350     1.0450 hc         1 MLJ       0.048700
     43 H231        -7.9130    -1.5240    -1.9550 hc         1 MLJ       0.050200
     44 H232        -9.0820    -1.1510    -0.7150 hc         1 MLJ       0.050200
     45 H251        -9.1900     1.0660    -1.8100 ha         1 MLJ       0.111000
     46 H261        -8.3710     3.3900    -1.7630 ha         1 MLJ       0.114000
     47 H271        -6.1530     3.8890    -0.7580 ha         1 MLJ       0.114000
     48 H281        -4.7960     2.0660     0.1670 ha         1 MLJ       0.115000
     49 H141         0.8340     0.2350    -0.0900 hn         1 MLJ       0.310500
     50 H191        -3.7010    -0.1670    -0.9180 hn         1 MLJ       0.310500
@<TRIPOS>BOND
     1     1    22 1   
     2     1    23 1   
     3     1    24 1   
     4     1    27 1   
     5     2     3 ar  
     6     2     7 ar  
     7     2    27 1   
     8     3     4 ar  
     9     3    30 1   
    10     4     5 ar  
    11     4    31 1   
    12     5     6 ar  
    13     5     8 1   
    14     6     7 ar  
    15     6    32 1   
    16     7    33 1   
    17     8    25 1   
    18     8    28 2   
    19     9    10 1   
    20     9    25 1   
    21     9    34 1   
    22     9    35 1   
    23    10    11 1   
    24    10    36 1   
    25    10    37 1   
    26    11    26 1   
    27    11    29 2   
    28    12    13 1   
    29    12    21 1   
    30    12    26 1   
    31    12    38 1   
    32    13    14 1   
    33    13    39 1   
    34    13    40 1   
    35    14    15 1   
    36    14    41 1   
    37    14    42 1   
    38    15    16 1   
    39    15    43 1   
    40    15    44 1   
    41    16    17 ar  
    42    16    21 ar  
    43    17    18 ar  
    44    17    45 1   
    45    18    19 ar  
    46    18    46 1   
    47    19    20 ar  
    48    19    47 1   
    49    20    21 ar  
    50    20    48 1   
    51    25    49 1   
    52    26    50 1   
@<TRIPOS>SUBSTRUCTURE
     1 MLJ         1 TEMP              0 ****  ****    0 ROOT
