@<TRIPOS>MOLECULE
MLK
   99   106     1     0     0
SMALL
abcg2


@<TRIPOS>ATOM
      1 O8           5.9020    -1.3290     2.2680 o          1 MLK      -0.497000
      2 C8           6.3150    -1.6460     1.1820 c          1 MLK       0.583000
      3 C9           6.7360    -3.0060     0.7000 c5         1 MLK      -0.162400
      4 C10          6.9450    -2.8560    -0.8060 c5         1 MLK      -0.144700
      5 C12          8.2290    -3.4680    -1.3460 c3         1 MLK      -0.078100
      6 C11          6.8720    -1.3670    -1.0440 c          1 MLK       0.589000
      7 O11          7.0820    -0.7700    -2.0690 o          1 MLK      -0.494000
      8 N7           6.5050    -0.7580     0.1410 n          1 MLK      -0.221000
      9 C6           6.1810     0.6160     0.2280 ca         1 MLK       0.012000
     10 C5           7.1880     1.5030     0.5670 ca         1 MLK      -0.105000
     11 C4           6.9180     2.8600     0.6660 ca         1 MLK      -0.075000
     12 C3           5.6340     3.3250     0.4300 ca         1 MLK      -0.121000
     13 C2           4.6230     2.4360     0.1010 ca         1 MLK      -0.053000
     14 C1           4.8790     1.0700    -0.0080 ca         1 MLK      -0.126600
     15 C13          3.7900     0.1240    -0.3830 c          1 MLK       0.620700
     16 O13          3.9590    -1.0200    -0.7310 o          1 MLK      -0.501000
     17 O14          2.6010     0.6900    -0.2950 os         1 MLK      -0.445100
     18 C15          1.4500    -0.0820    -0.6600 c3         1 MLK       0.171600
     19 C16          0.2280     0.8290    -0.5910 c6         1 MLK      -0.052000
     20 C21          0.3630     1.9030    -1.6690 c6         1 MLK      -0.060400
     21 C20         -0.7700     2.9000    -1.5910 c6         1 MLK      -0.101400
     22 C19         -2.1190     2.2010    -1.6690 c6         1 MLK       0.203300
     23 O19         -3.1510     3.0870    -1.2970 os         1 MLK      -0.454000
     24 C22         -3.4930     4.0340    -2.2730 c3         1 MLK       0.148900
     25 C18         -2.2850     0.8940    -0.8590 c5         1 MLK      -0.028000
     26 C17         -1.0280    -0.0230    -0.8600 c5         1 MLK      -0.047700
     27 C26         -2.3940     1.0530     0.6550 c5         1 MLK       0.258500
     28 N23         -1.2760     1.8290     1.1470 n3         1 MLK      -0.795600
     29 C24         -1.4010     2.4190     2.4610 c3         1 MLK       0.218800
     30 C25         -0.9340     3.8690     2.4990 c3         1 MLK      -0.100100
     31 C23          0.0840     1.4560     0.8150 c6         1 MLK       0.219800
     32 C30         -3.5100     0.1470    -1.4420 c5         1 MLK      -0.049700
     33 C33         -4.9030     0.8490    -1.3890 c5         1 MLK      -0.068400
     34 C34         -5.9360    -0.2470    -1.0380 c5         1 MLK      -0.096700
     35 C35         -6.2590    -0.1810     0.4480 c6         1 MLK       0.184300
     36 O35         -7.2810    -1.1110     0.7420 os         1 MLK      -0.451000
     37 C37         -7.9610    -0.8450     1.9390 c3         1 MLK       0.145900
     38 C36         -4.9950    -0.3550     1.3150 c6         1 MLK      -0.127400
     39 C31         -3.7990    -1.2150    -0.8220 c5         1 MLK      -0.091700
     40 C38         -5.1730    -1.5280    -1.3800 c5         1 MLK       0.175300
     41 O38         -5.6580    -2.7350    -0.8540 os         1 MLK      -0.452000
     42 C39         -6.8130    -3.2220    -1.4910 c3         1 MLK       0.155900
     43 C32         -3.7840    -1.1220     0.7080 c6         1 MLK       0.198000
     44 O32         -3.7410    -2.4250     1.2760 oh         1 MLK      -0.683000
     45 C27         -2.4510    -0.4410     1.1140 c5         1 MLK       0.128000
     46 O27         -2.2900    -0.4970     2.5100 oh         1 MLK      -0.715000
     47 C28         -1.2180    -0.9960     0.3390 c5         1 MLK       0.135300
     48 O28         -1.1840    -2.3330    -0.0910 os         1 MLK      -0.448000
     49 C29         -0.7370    -3.2480     0.8780 c3         1 MLK       0.151900
     50 H9C1         7.6590    -3.2820     1.2160 hc         1 MLK       0.085200
     51 H9C2         5.9840    -3.7490     0.9640 hc         1 MLK       0.085200
     52 H10          6.0920    -3.2870    -1.3390 hc         1 MLK       0.096700
     53 H121         8.2410    -4.5400    -1.1550 hc         1 MLK       0.046367
     54 H122         8.3140    -3.3210    -2.4210 hc         1 MLK       0.046367
     55 H123         9.1060    -3.0300    -0.8670 hc         1 MLK       0.046367
     56 H5           8.1850     1.1250     0.7550 ha         1 MLK       0.128000
     57 H4           7.7110     3.5490     0.9250 ha         1 MLK       0.120000
     58 H3           5.4150     4.3810     0.5030 ha         1 MLK       0.120000
     59 H2           3.6280     2.8180    -0.0810 ha         1 MLK       0.132000
     60 H151         1.3800    -0.9370     0.0150 h1         1 MLK       0.057200
     61 H152         1.5680    -0.4650    -1.6780 h1         1 MLK       0.057200
     62 H211         1.3170     2.4290    -1.5790 hc         1 MLK       0.045700
     63 H212         0.3710     1.4160    -2.6510 hc         1 MLK       0.045700
     64 H201        -0.7130     3.4750    -0.6660 hc         1 MLK       0.057200
     65 H202        -0.6830     3.6130    -2.4150 hc         1 MLK       0.057200
     66 H19         -2.2580     1.9070    -2.7250 h1         1 MLK       0.019700
     67 H221        -4.3910     4.5510    -1.9340 h1         1 MLK       0.026033
     68 H222        -2.7120     4.7850    -2.4330 h1         1 MLK       0.026033
     69 H223        -3.7130     3.5650    -3.2400 h1         1 MLK       0.026033
     70 H17         -0.9140    -0.5770    -1.7990 hc         1 MLK       0.074700
     71 H26         -3.2880     1.5980     0.9580 h1         1 MLK       0.082700
     72 H241        -0.8570     1.8390     3.2210 h1         1 MLK       0.035700
     73 H242        -2.4510     2.3850     2.7560 h1         1 MLK       0.035700
     74 H251         0.1180     3.9740     2.2300 hc         1 MLK       0.033700
     75 H252        -1.5190     4.4770     1.8080 hc         1 MLK       0.033700
     76 H253        -1.0560     4.2810     3.5020 hc         1 MLK       0.033700
     77 H231         0.7100     2.3530     0.8610 h1         1 MLK       0.036700
     78 H232         0.5060     0.7750     1.5730 h1         1 MLK       0.036700
     79 H30         -3.2720    -0.0310    -2.4960 hc         1 MLK       0.046700
     80 H331        -4.9400     1.6520    -0.6550 hc         1 MLK       0.054200
     81 H332        -5.1360     1.3080    -2.3500 hc         1 MLK       0.054200
     82 H34         -6.8570    -0.1270    -1.6130 hc         1 MLK       0.066700
     83 H35         -6.6510     0.8280     0.6510 h1         1 MLK       0.028700
     84 H371        -8.7720    -1.5680     2.0330 h1         1 MLK       0.027033
     85 H372        -7.3230    -0.9410     2.8260 h1         1 MLK       0.027033
     86 H373        -8.3940     0.1630     1.9520 h1         1 MLK       0.027033
     87 H361        -4.6920     0.6420     1.6250 hc         1 MLK       0.057700
     88 H362        -5.2610    -0.8530     2.2490 hc         1 MLK       0.057700
     89 H31         -3.0780    -1.9670    -1.1340 hc         1 MLK       0.101700
     90 H38         -5.0960    -1.6110    -2.4770 h1         1 MLK       0.036700
     91 H391        -7.0880    -4.1590    -1.0080 h1         1 MLK       0.029700
     92 H392        -7.6590    -2.5350    -1.4130 h1         1 MLK       0.029700
     93 H393        -6.6280    -3.4240    -2.5530 h1         1 MLK       0.029700
     94 H32         -4.5220    -2.8980     0.9640 ho         1 MLK       0.478000
     95 H27         -2.5060    -1.3910     2.7980 ho         1 MLK       0.522000
     96 H28         -0.3890    -0.8720     1.0450 h1         1 MLK       0.048700
     97 H291         0.2470    -2.9660     1.2740 h1         1 MLK       0.031700
     98 H292        -1.4270    -3.3510     1.7180 h1         1 MLK       0.031700
     99 H293        -0.6420    -4.2190     0.3940 h1         1 MLK       0.031700
@<TRIPOS>BOND
     1     1     2 2   
     2     2     3 1   
     3     2     8 1   
     4     3     4 1   
     5     3    50 1   
     6     3    51 1   
     7     4     5 1   
     8     4     6 1   
     9     4    52 1   
    10     5    53 1   
    11     5    54 1   
    12     5    55 1   
    13     6     7 2   
    14     6     8 1   
    15     8     9 1   
    16     9    10 ar  
    17     9    14 ar  
    18    10    11 ar  
    19    10    56 1   
    20    11    12 ar  
    21    11    57 1   
    22    12    13 ar  
    23    12    58 1   
    24    13    14 ar  
    25    13    59 1   
    26    14    15 1   
    27    15    16 2   
    28    15    17 1   
    29    17    18 1   
    30    18    19 1   
    31    18    60 1   
    32    18    61 1   
    33    19    20 1   
    34    19    26 1   
    35    19    31 1   
    36    20    21 1   
    37    20    62 1   
    38    20    63 1   
    39    21    22 1   
    40    21    64 1   
    41    21    65 1   
    42    22    23 1   
    43    22    25 1   
    44    22    66 1   
    45    23    24 1   
    46    24    67 1   
    47    24    68 1   
    48    24    69 1   
    49    25    26 1   
    50    25    27 1   
    51    25    32 1   
    52    26    47 1   
    53    26    70 1   
    54    27    28 1   
    55    27    45 1   
    56    27    71 1   
    57    28    29 1   
    58    28    31 1   
    59    29    30 1   
    60    29    72 1   
    61    29    73 1   
    62    30    74 1   
    63    30    75 1   
    64    30    76 1   
    65    31    77 1   
    66    31    78 1   
    67    32    33 1   
    68    32    39 1   
    69    32    79 1   
    70    33    34 1   
    71    33    80 1   
    72    33    81 1   
    73    34    35 1   
    74    34    40 1   
    75    34    82 1   
    76    35    36 1   
    77    35    38 1   
    78    35    83 1   
    79    36    37 1   
    80    37    84 1   
    81    37    85 1   
    82    37    86 1   
    83    38    43 1   
    84    38    87 1   
    85    38    88 1   
    86    39    40 1   
    87    39    43 1   
    88    39    89 1   
    89    40    41 1   
    90    40    90 1   
    91    41    42 1   
    92    42    91 1   
    93    42    92 1   
    94    42    93 1   
    95    43    44 1   
    96    43    45 1   
    97    44    94 1   
    98    45    46 1   
    99    45    47 1   
   100    46    95 1   
   101    47    48 1   
   102    47    96 1   
   103    48    49 1   
   104    49    97 1   
   105    49    98 1   
   106    49    99 1   
@<TRIPOS>SUBSTRUCTURE
     1 MLK         1 TEMP              0 ****  ****    0 ROOT
