@<TRIPOS>MOLECULE
MLK
   99   106     1     0     0
SMALL
No Charge or Current Charge


@<TRIPOS>ATOM
      1 O8           5.0670    -1.0060     2.0230 o          1 MLK      -0.497000
      2 C8           6.0020    -1.3750     1.3260 c          1 MLK       0.583000
      3 C9           6.6950    -2.7440     1.2780 c5         1 MLK      -0.162400
      4 C10          7.0240    -2.8970    -0.2340 c5         1 MLK      -0.144700
      5 C12          8.1640    -3.8800    -0.5930 c3         1 MLK      -0.078100
      6 C11          7.2940    -1.4320    -0.6450 c          1 MLK       0.589000
      7 O11          8.0760    -0.9870    -1.4750 o          1 MLK      -0.494000
      8 N7           6.5360    -0.6740     0.2460 n          1 MLK      -0.221000
      9 C6           6.2920     0.7230     0.0430 ca         1 MLK       0.012000
     10 C5           7.3350     1.6270     0.3240 ca         1 MLK      -0.105000
     11 C4           7.1410     3.0090     0.1800 ca         1 MLK      -0.075000
     12 C3           5.8980     3.4970    -0.2460 ca         1 MLK      -0.121000
     13 C2           4.8510     2.6050    -0.5340 ca         1 MLK      -0.053000
     14 C1           5.0330     1.2080    -0.4010 ca         1 MLK      -0.126600
     15 C13          3.8930     0.2740    -0.7500 c          1 MLK       0.620700
     16 O13          4.0540    -0.8680    -1.1640 o          1 MLK      -0.501000
     17 O14          2.6620     0.8670    -0.6500 os         1 MLK      -0.445100
     18 C15          1.5010     0.0850    -0.9820 c3         1 MLK       0.171600
     19 C16          0.2090     0.9550    -0.7960 c6         1 MLK      -0.052000
     20 C21          0.2550     2.1150    -1.8370 c6         1 MLK      -0.060400
     21 C20         -0.9200     3.0940    -1.6810 c6         1 MLK      -0.101400
     22 C19         -2.2860     2.3680    -1.7390 c6         1 MLK       0.203300
     23 O19         -3.3400     3.2810    -1.3490 os         1 MLK      -0.454000
     24 C22         -3.5790     4.4290    -2.1820 c3         1 MLK       0.148900
     25 C18         -2.3830     1.0070    -0.9270 c5         1 MLK      -0.028000
     26 C17         -1.0820     0.0890    -1.0190 c5         1 MLK      -0.047700
     27 C26         -2.4290     1.1010     0.6420 c5         1 MLK       0.258500
     28 N23         -1.2140     1.9170     1.1400 n3         1 MLK      -0.795600
     29 C24         -1.2630     2.2620     2.5830 c3         1 MLK       0.218800
     30 C25         -0.3470     3.4340     3.0000 c3         1 MLK      -0.100100
     31 C23          0.1630     1.5300     0.6700 c6         1 MLK       0.219800
     32 C30         -3.6690     0.1990    -1.5160 c5         1 MLK      -0.049700
     33 C33         -5.0590     0.9170    -1.2640 c5         1 MLK      -0.068400
     34 C34         -6.0660    -0.2510    -0.9130 c5         1 MLK      -0.096700
     35 C35         -6.3420    -0.3450     0.6140 c6         1 MLK       0.184300
     36 O35         -7.3500    -1.3350     0.9160 os         1 MLK      -0.451000
     37 C37         -7.9740    -1.2850     2.2130 c3         1 MLK       0.145900
     38 C36         -5.0260    -0.5460     1.4200 c6         1 MLK      -0.127400
     39 C31         -3.9250    -1.1930    -0.8960 c5         1 MLK      -0.091700
     40 C38         -5.3080    -1.4690    -1.5070 c5         1 MLK       0.175300
     41 O38         -5.7860    -2.7420    -1.0070 os         1 MLK      -0.452000
     42 C39         -7.0280    -3.2230    -1.5500 c3         1 MLK       0.155900
     43 C32         -3.8250    -1.2410     0.6560 c6         1 MLK       0.198000
     44 O32         -3.8570    -2.6200     1.0620 oh         1 MLK      -0.683000
     45 C27         -2.4410    -0.5090     1.0440 c5         1 MLK       0.128000
     46 O27         -2.2380    -0.8100     2.4450 oh         1 MLK      -0.715000
     47 C28         -1.1800    -0.9600     0.1800 c5         1 MLK       0.135300
     48 O28         -1.1960    -2.3270    -0.3360 os         1 MLK      -0.448000
     49 C29         -0.8170    -3.3810     0.5690 c3         1 MLK       0.151900
     50 H9C1         7.6320    -2.6570     1.8400 hc         1 MLK       0.085200
     51 H9C2         6.0760    -3.5310     1.7240 hc         1 MLK       0.085200
     52 H10          6.1070    -3.2080    -0.7510 hc         1 MLK       0.096700
     53 H121         7.9260    -4.8960    -0.2570 hc         1 MLK       0.046367
     54 H122         8.3280    -3.9170    -1.6770 hc         1 MLK       0.046367
     55 H123         9.1090    -3.5830    -0.1220 hc         1 MLK       0.046367
     56 H5           8.2990     1.2560     0.6640 ha         1 MLK       0.128000
     57 H4           7.9520     3.7000     0.4020 ha         1 MLK       0.120000
     58 H3           5.7440     4.5680    -0.3580 ha         1 MLK       0.120000
     59 H2           3.9010     3.0100    -0.8760 ha         1 MLK       0.132000
     60 H151         1.4540    -0.8040    -0.3420 h1         1 MLK       0.057200
     61 H152         1.5510    -0.2600    -2.0240 h1         1 MLK       0.057200
     62 H211         1.1920     2.6810    -1.7440 hc         1 MLK       0.045700
     63 H212         0.2510     1.7010    -2.8560 hc         1 MLK       0.045700
     64 H201        -0.8250     3.6710    -0.7530 hc         1 MLK       0.057200
     65 H202        -0.8610     3.8310    -2.4920 hc         1 MLK       0.057200
     66 H19         -2.4480     2.1130    -2.7970 h1         1 MLK       0.019700
     67 H221        -4.4690     4.9690    -1.8350 h1         1 MLK       0.026033
     68 H222        -2.7320     5.1260    -2.1530 h1         1 MLK       0.026033
     69 H223        -3.7490     4.1260    -3.2240 h1         1 MLK       0.026033
     70 H17         -0.9880    -0.3950    -1.9980 hc         1 MLK       0.074700
     71 H26         -3.3420     1.6200     0.9510 h1         1 MLK       0.082700
     72 H241        -0.9990     1.3870     3.1910 h1         1 MLK       0.035700
     73 H242        -2.2910     2.5400     2.8520 h1         1 MLK       0.035700
     74 H251         0.7120     3.1680     2.9080 hc         1 MLK       0.033700
     75 H252        -0.5440     4.3190     2.3820 hc         1 MLK       0.033700
     76 H253        -0.5330     3.7020     4.0470 hc         1 MLK       0.033700
     77 H231         0.8350     2.3990     0.7200 h1         1 MLK       0.036700
     78 H232         0.5950     0.7990     1.3680 h1         1 MLK       0.036700
     79 H30         -3.5280     0.0740    -2.5970 hc         1 MLK       0.046700
     80 H331        -5.0360     1.6610    -0.4620 hc         1 MLK       0.054200
     81 H332        -5.3780     1.4540    -2.1650 hc         1 MLK       0.054200
     82 H34         -7.0380    -0.0980    -1.3940 hc         1 MLK       0.066700
     83 H35         -6.7660     0.6240     0.9190 h1         1 MLK       0.028700
     84 H371        -8.7750    -2.0320     2.2750 h1         1 MLK       0.027033
     85 H372        -7.2570    -1.4970     3.0150 h1         1 MLK       0.027033
     86 H373        -8.4170    -0.2970     2.3930 h1         1 MLK       0.027033
     87 H361        -4.7410     0.4370     1.8040 hc         1 MLK       0.057700
     88 H362        -5.2310    -1.1000     2.3440 hc         1 MLK       0.057700
     89 H31         -3.2490    -1.9370    -1.3160 hc         1 MLK       0.101700
     90 H38         -5.2940    -1.4780    -2.6070 h1         1 MLK       0.036700
     91 H391        -7.3090    -4.1720    -1.0770 h1         1 MLK       0.029700
     92 H392        -7.8400    -2.5040    -1.3830 h1         1 MLK       0.029700
     93 H393        -6.9380    -3.3930    -2.6310 h1         1 MLK       0.029700
     94 H32         -4.5770    -3.0070     0.5060 ho         1 MLK       0.478000
     95 H27         -2.6920    -1.6810     2.5500 ho         1 MLK       0.522000
     96 H28         -0.2990    -0.9210     0.8270 h1         1 MLK       0.048700
     97 H291         0.2370    -3.2790     0.8580 h1         1 MLK       0.031700
     98 H292        -1.4220    -3.3640     1.4830 h1         1 MLK       0.031700
     99 H293        -0.9450    -4.3590     0.0900 h1         1 MLK       0.031700
@<TRIPOS>BOND
     1     1     2 2   
     2     2     3 1   
     3     2     8 1   
     4     3     4 1   
     5     3    50 1   
     6     3    51 1   
     7     4     5 1   
     8     4     6 1   
     9     4    52 1   
    10     5    53 1   
    11     5    54 1   
    12     5    55 1   
    13     6     7 2   
    14     6     8 1   
    15     8     9 1   
    16     9    10 ar  
    17     9    14 ar  
    18    10    11 ar  
    19    10    56 1   
    20    11    12 ar  
    21    11    57 1   
    22    12    13 ar  
    23    12    58 1   
    24    13    14 ar  
    25    13    59 1   
    26    14    15 1   
    27    15    16 2   
    28    15    17 1   
    29    17    18 1   
    30    18    19 1   
    31    18    60 1   
    32    18    61 1   
    33    19    20 1   
    34    19    26 1   
    35    19    31 1   
    36    20    21 1   
    37    20    62 1   
    38    20    63 1   
    39    21    22 1   
    40    21    64 1   
    41    21    65 1   
    42    22    23 1   
    43    22    25 1   
    44    22    66 1   
    45    23    24 1   
    46    24    67 1   
    47    24    68 1   
    48    24    69 1   
    49    25    26 1   
    50    25    27 1   
    51    25    32 1   
    52    26    47 1   
    53    26    70 1   
    54    27    28 1   
    55    27    45 1   
    56    27    71 1   
    57    28    29 1   
    58    28    31 1   
    59    29    30 1   
    60    29    72 1   
    61    29    73 1   
    62    30    74 1   
    63    30    75 1   
    64    30    76 1   
    65    31    77 1   
    66    31    78 1   
    67    32    33 1   
    68    32    39 1   
    69    32    79 1   
    70    33    34 1   
    71    33    80 1   
    72    33    81 1   
    73    34    35 1   
    74    34    40 1   
    75    34    82 1   
    76    35    36 1   
    77    35    38 1   
    78    35    83 1   
    79    36    37 1   
    80    37    84 1   
    81    37    85 1   
    82    37    86 1   
    83    38    43 1   
    84    38    87 1   
    85    38    88 1   
    86    39    40 1   
    87    39    43 1   
    88    39    89 1   
    89    40    41 1   
    90    40    90 1   
    91    41    42 1   
    92    42    91 1   
    93    42    92 1   
    94    42    93 1   
    95    43    44 1   
    96    43    45 1   
    97    44    94 1   
    98    45    46 1   
    99    45    47 1   
   100    46    95 1   
   101    47    48 1   
   102    47    96 1   
   103    48    49 1   
   104    49    97 1   
   105    49    98 1   
   106    49    99 1   
@<TRIPOS>SUBSTRUCTURE
     1 MLK         1 TEMP              0 ****  ****    0 ROOT
