@<TRIPOS>MOLECULE
MLL
   25    24     1     0     0
SMALL
bcc


@<TRIPOS>ATOM
      1 N          144.0020   236.9870   103.3490 n8         1 MLL      -0.890800
      2 CA         144.7680   236.2460   104.3540 c3         1 MLL       0.118500
      3 CB         143.9730   236.0680   105.6470 c3         1 MLL      -0.080400
      4 CG         144.2310   237.1460   106.7030 c3         1 MLL      -0.064700
      5 CD2        143.4190   236.8410   107.9580 c3         1 MLL      -0.090100
      6 CD1        143.9440   238.5650   106.2200 c3         1 MLL      -0.090100
      7 C          145.0760   234.9090   103.6950 c          1 MLL       0.648100
      8 O          144.4820   233.8780   103.8850 o          1 MLL      -0.526000
      9 O9         146.0680   235.0320   102.8230 os         1 MLL      -0.426900
     10 C10        146.4140   233.8840   102.0480 c3         1 MLL       0.129700
     11 H          143.5180   237.7580   103.7900 hn         1 MLL       0.351800
     12 H2         144.6270   237.4010   102.6680 hn         1 MLL       0.351800
     13 HA         145.7250   236.7270   104.5990 h1         1 MLL       0.045700
     14 HB2        142.9040   236.0250   105.4100 hc         1 MLL       0.066200
     15 HB3        144.2200   235.1040   106.0950 hc         1 MLL       0.066200
     16 HG         145.2930   237.0940   106.9700 hc         1 MLL       0.043700
     17 HD21       143.6340   235.8420   108.3420 hc         1 MLL       0.034200
     18 HD22       143.6370   237.5560   108.7530 hc         1 MLL       0.034200
     19 HD23       142.3470   236.8930   107.7530 hc         1 MLL       0.034200
     20 HD11       144.1110   239.2850   107.0230 hc         1 MLL       0.034200
     21 HD12       144.5880   238.8610   105.3900 hc         1 MLL       0.034200
     22 HD13       142.9040   238.6710   105.8980 hc         1 MLL       0.034200
     23 H101       145.5770   233.5460   101.4380 h1         1 MLL       0.047367
     24 H102       147.2290   234.1950   101.4000 h1         1 MLL       0.047367
     25 H103       146.7510   233.0630   102.6800 h1         1 MLL       0.047367
@<TRIPOS>BOND
     1     1     2 1   
     2     1    11 1   
     3     1    12 1   
     4     2     3 1   
     5     2     7 1   
     6     2    13 1   
     7     3     4 1   
     8     3    14 1   
     9     3    15 1   
    10     4     5 1   
    11     4     6 1   
    12     4    16 1   
    13     5    17 1   
    14     5    18 1   
    15     5    19 1   
    16     6    20 1   
    17     6    21 1   
    18     6    22 1   
    19     7     8 2   
    20     7     9 1   
    21     9    10 1   
    22    10    23 1   
    23    10    24 1   
    24    10    25 1   
@<TRIPOS>SUBSTRUCTURE
     1 MLL         1 TEMP              0 ****  ****    0 ROOT
