@<TRIPOS>MOLECULE
MLL
   25    24     1     0     0
SMALL
No Charge or Current Charge


@<TRIPOS>ATOM
      1 N          144.0430   237.2450   103.3890 n8         1 MLL      -0.890800
      2 CA         144.7230   236.2480   104.2830 c3         1 MLL       0.118500
      3 CB         143.9410   236.0900   105.6220 c3         1 MLL      -0.080400
      4 CG         144.1820   237.1900   106.7020 c3         1 MLL      -0.064700
      5 CD2        143.4880   236.8080   108.0300 c3         1 MLL      -0.090100
      6 CD1        143.7610   238.6140   106.2650 c3         1 MLL      -0.090100
      7 C          145.0140   234.8620   103.5930 c          1 MLL       0.648100
      8 O          144.3720   233.8330   103.7900 o          1 MLL      -0.526000
      9 O9         146.0840   234.9440   102.7330 os         1 MLL      -0.426900
     10 C10        146.4760   233.7560   102.0210 c3         1 MLL       0.129700
     11 H          143.9540   238.1360   103.8870 hn         1 MLL       0.351800
     12 H2         144.6550   237.4560   102.5920 hn         1 MLL       0.351800
     13 HA         145.7120   236.6580   104.5280 h1         1 MLL       0.045700
     14 HB2        142.8670   236.0020   105.4110 hc         1 MLL       0.066200
     15 HB3        144.2350   235.1340   106.0730 hc         1 MLL       0.066200
     16 HG         145.2600   237.2200   106.9060 hc         1 MLL       0.043700
     17 HD21       143.8330   235.8290   108.3840 hc         1 MLL       0.034200
     18 HD22       143.7120   237.5440   108.8130 hc         1 MLL       0.034200
     19 HD23       142.3990   236.7640   107.9040 hc         1 MLL       0.034200
     20 HD11       143.8480   239.3160   107.1020 hc         1 MLL       0.034200
     21 HD12       144.4070   238.9890   105.4640 hc         1 MLL       0.034200
     22 HD13       142.7210   238.6270   105.9170 hc         1 MLL       0.034200
     23 H101       145.6570   233.3900   101.3880 h1         1 MLL       0.047367
     24 H102       147.3370   233.9650   101.3750 h1         1 MLL       0.047367
     25 H103       146.7600   232.9570   102.7190 h1         1 MLL       0.047367
@<TRIPOS>BOND
     1     1     2 1   
     2     1    11 1   
     3     1    12 1   
     4     2     3 1   
     5     2     7 1   
     6     2    13 1   
     7     3     4 1   
     8     3    14 1   
     9     3    15 1   
    10     4     5 1   
    11     4     6 1   
    12     4    16 1   
    13     5    17 1   
    14     5    18 1   
    15     5    19 1   
    16     6    20 1   
    17     6    21 1   
    18     6    22 1   
    19     7     8 2   
    20     7     9 1   
    21     9    10 1   
    22    10    23 1   
    23    10    24 1   
    24    10    25 1   
@<TRIPOS>SUBSTRUCTURE
     1 MLL         1 TEMP              0 ****  ****    0 ROOT
