@<TRIPOS>MOLECULE
MLM
   11    10     1     0     0
SMALL
No Charge or Current Charge


@<TRIPOS>ATOM
      1 C1          -0.2430     0.4360    -0.9890 c          1 MLM       0.733000
      2 O1           0.2910    -0.2570    -1.8410 o          1 MLM      -0.725500
      3 O2          -0.0820     1.6420    -0.8950 o          1 MLM      -0.725500
      4 C2          -1.1160    -0.2430     0.0420 c3         1 MLM      -0.309400
      5 C3          -0.1880    -0.5920     1.1820 c          1 MLM       0.640100
      6 O3           0.5040    -1.5950     1.2060 o          1 MLM      -0.654100
      7 N6          -0.1790     0.2630     2.2260 nt         1 MLM      -0.614000
      8 H2C1        -1.5070    -1.1900    -0.3500 hc         1 MLM       0.039700
      9 H2C2        -1.8530     0.4730     0.4250 hc         1 MLM       0.039700
     10 H6N1         0.4170     0.0710     3.0170 hn         1 MLM       0.288500
     11 H6N2        -0.7540     1.0920     2.2010 hn         1 MLM       0.288500
@<TRIPOS>BOND
     1     1     2 1   
     2     1     3 1   
     3     1     4 1   
     4     4     5 1   
     5     4     8 1   
     6     4     9 1   
     7     5     6 2   
     8     5     7 1   
     9     7    10 1   
    10     7    11 1   
@<TRIPOS>SUBSTRUCTURE
     1 MLM         1 TEMP              0 ****  ****    0 ROOT
