@<TRIPOS>MOLECULE
MLM
   11    10     1     0     0
SMALL
abcg2


@<TRIPOS>ATOM
      1 C1          -0.1900     0.3990    -1.0420 c          1 MLM       0.733000
      2 O1          -0.6830     0.3220    -2.1810 o          1 MLM      -0.725500
      3 O2           0.7670     1.1030    -0.6760 o          1 MLM      -0.725500
      4 C2          -0.8720    -0.4780     0.0420 c3         1 MLM      -0.309400
      5 C3          -0.0940    -0.4820     1.3290 c          1 MLM       0.640100
      6 O3           0.8290    -1.2610     1.5360 o          1 MLM      -0.654100
      7 N6          -0.4830     0.4280     2.2390 nt         1 MLM      -0.614000
      8 H2C1        -0.9610    -1.5020    -0.3240 hc         1 MLM       0.039700
      9 H2C2        -1.8910    -0.1100     0.1940 hc         1 MLM       0.039700
     10 H6N1         0.0510     0.5650     3.0810 hn         1 MLM       0.288500
     11 H6N2        -1.1830     1.1160     2.0250 hn         1 MLM       0.288500
@<TRIPOS>BOND
     1     1     2 1   
     2     1     3 1   
     3     1     4 1   
     4     4     5 1   
     5     4     8 1   
     6     4     9 1   
     7     5     6 2   
     8     5     7 1   
     9     7    10 1   
    10     7    11 1   
@<TRIPOS>SUBSTRUCTURE
     1 MLM         1 TEMP              0 ****  ****    0 ROOT
