@<TRIPOS>MOLECULE
MLO
   38    39     1     0     0
SMALL
No Charge or Current Charge


@<TRIPOS>ATOM
      1 CAA          5.5660     2.0840     1.3320 c2         1 MLO      -0.323000
      2 CAB         -3.9250     3.5280    -0.7840 c2         1 MLO      -0.323000
      3 OAD         -0.3310    -2.4600     1.7300 oh         1 MLO      -0.521600
      4 CAE          4.2460     1.8670     1.2180 c2         1 MLO      -0.211200
      5 CAF         -4.1170     2.3870    -0.1030 c2         1 MLO      -0.211200
      6 CAG          2.6130    -1.4660    -1.4250 ca         1 MLO      -0.210500
      7 CAH         -2.5800    -1.7160     1.4900 ca         1 MLO      -0.210500
      8 CAI          3.3160    -0.2920    -1.1040 ca         1 MLO      -0.061000
      9 CAJ         -3.5320    -0.8670     0.9010 ca         1 MLO      -0.061000
     10 CAK          1.3350     0.5890    -0.0080 ca         1 MLO      -0.058000
     11 CAL         -1.7870     0.1430    -0.4530 ca         1 MLO      -0.058000
     12 CAM          3.4400     2.0170    -0.0550 c3         1 MLO       0.006600
     13 CAN         -4.1620     1.0000    -0.7100 c3         1 MLO       0.006600
     14 CAO          1.2720    -1.6180    -1.0370 ca         1 MLO       0.161100
     15 CAP         -1.2300    -1.6410     1.1080 ca         1 MLO       0.161100
     16 CAQ          2.6780     0.7440    -0.3990 ca         1 MLO      -0.118800
     17 CAR         -3.1400     0.0680    -0.0740 ca         1 MLO      -0.118800
     18 CAS          0.6130    -0.5910    -0.3100 cp         1 MLO      -0.057000
     19 CAT         -0.8140    -0.7100     0.1190 cp         1 MLO      -0.057000
     20 HAA          6.0850     1.9560     2.2840 ha         1 MLO       0.161000
     21 HAAA         6.1750     2.3940     0.4820 ha         1 MLO       0.161000
     22 HAB         -3.9030     4.4950    -0.2800 ha         1 MLO       0.161000
     23 HABA        -3.7810     3.5360    -1.8650 ha         1 MLO       0.161000
     24 HOAC         1.2450    -3.3360    -1.8790 ho         1 MLO       0.459500
     25 HOAD        -0.8190    -3.0240     2.3650 ho         1 MLO       0.459500
     26 HAE          3.6600     1.5560     2.0860 ha         1 MLO       0.170000
     27 HAF         -4.2570     2.4060     0.9810 ha         1 MLO       0.170000
     28 HAG          3.1190    -2.2520    -1.9800 ha         1 MLO       0.111500
     29 HAH         -2.8990    -2.4260     2.2490 ha         1 MLO       0.111500
     30 HAI          4.3550    -0.1850    -1.4070 ha         1 MLO       0.111500
     31 HAJ         -4.5740    -0.9330     1.2080 ha         1 MLO       0.111500
     32 HAK          0.8390     1.3850     0.5430 ha         1 MLO       0.117000
     33 HAL         -1.4810     0.8690    -1.2030 ha         1 MLO       0.117000
     34 HAM          2.7380     2.8530     0.0550 hc         1 MLO       0.050450
     35 HAMA         4.0950     2.2930    -0.8910 hc         1 MLO       0.050450
     36 HAN         -5.1710     0.5850    -0.5940 hc         1 MLO       0.050450
     37 HANA        -3.9890     1.0520    -1.7920 hc         1 MLO       0.050450
     38 OAC          0.6150    -2.7600    -1.3980 oh         1 MLO      -0.521600
@<TRIPOS>BOND
     1     1     4 2   
     2     1    20 1   
     3     1    21 1   
     4     2     5 2   
     5     2    22 1   
     6     2    23 1   
     7     3    15 1   
     8     3    25 1   
     9     4    12 1   
    10     4    26 1   
    11     5    13 1   
    12     5    27 1   
    13     6     8 ar  
    14     6    14 ar  
    15     6    28 1   
    16     7     9 ar  
    17     7    15 ar  
    18     7    29 1   
    19     8    16 ar  
    20     8    30 1   
    21     9    17 ar  
    22     9    31 1   
    23    10    16 ar  
    24    10    18 ar  
    25    10    32 1   
    26    11    17 ar  
    27    11    19 ar  
    28    11    33 1   
    29    12    16 1   
    30    12    34 1   
    31    12    35 1   
    32    13    17 1   
    33    13    36 1   
    34    13    37 1   
    35    14    18 ar  
    36    14    38 1   
    37    15    19 ar  
    38    18    19 1   
    39    24    38 1   
@<TRIPOS>SUBSTRUCTURE
     1 MLO         1 TEMP              0 ****  ****    0 ROOT
