@<TRIPOS>MOLECULE
MLO
   38    39     1     0     0
SMALL
bcc


@<TRIPOS>ATOM
      1 CAA          5.6610     1.9890     1.0460 c2         1 MLO      -0.223000
      2 CAB         -3.7170     3.4240    -0.9800 c2         1 MLO      -0.223000
      3 OAD         -0.3050    -2.4620     1.5940 oh         1 MLO      -0.482600
      4 CAE          4.3550     1.8140     1.2040 c2         1 MLO      -0.161200
      5 CAF         -4.0000     2.3920    -0.1940 c2         1 MLO      -0.161200
      6 CAG          2.5660    -1.3440    -1.3000 ca         1 MLO      -0.228500
      7 CAH         -2.6010    -1.7980     1.3990 ca         1 MLO      -0.228500
      8 CAI          3.2320    -0.1830    -0.9430 ca         1 MLO      -0.079000
      9 CAJ         -3.5460    -0.9470     0.8400 ca         1 MLO      -0.079000
     10 CAK          1.2540     0.6300     0.1060 ca         1 MLO      -0.076000
     11 CAL         -1.8250     0.1540    -0.3850 ca         1 MLO      -0.076000
     12 CAM          3.3220     2.0870     0.1520 c3         1 MLO       0.006600
     13 CAN         -4.1870     0.9830    -0.6690 c3         1 MLO       0.006600
     14 CAO          1.2320    -1.5260    -0.9470 ca         1 MLO       0.161100
     15 CAP         -1.2600    -1.6760     1.0590 ca         1 MLO       0.161100
     16 CAQ          2.5850     0.8290    -0.2410 ca         1 MLO      -0.118800
     17 CAR         -3.1750     0.0430    -0.0590 ca         1 MLO      -0.118800
     18 CAS          0.5640    -0.5330    -0.2250 cp         1 MLO      -0.057000
     19 CAT         -0.8600    -0.6920     0.1460 cp         1 MLO      -0.057000
     20 HAA          6.3640     1.7640     1.8370 ha         1 MLO       0.111000
     21 HAAA         6.0760     2.3630     0.1160 ha         1 MLO       0.111000
     22 HAB         -3.5870     4.4220    -0.5820 ha         1 MLO       0.111000
     23 HABA        -3.6070     3.3100    -2.0530 ha         1 MLO       0.111000
     24 HOAC         1.0970    -3.2300    -1.7950 ho         1 MLO       0.420500
     25 HOAD        -0.7040    -3.1060     2.1900 ho         1 MLO       0.420500
     26 HAE          3.9780     1.4330     2.1490 ha         1 MLO       0.120000
     27 HAF         -4.0980     2.5470     0.8760 ha         1 MLO       0.120000
     28 HAG          3.0870    -2.1120    -1.8620 ha         1 MLO       0.129500
     29 HAH         -2.9140    -2.5580     2.1070 ha         1 MLO       0.129500
     30 HAI          4.2720    -0.0650    -1.2230 ha         1 MLO       0.129500
     31 HAJ         -4.5870    -1.0640     1.1160 ha         1 MLO       0.129500
     32 HAK          0.7280     1.4000     0.6600 ha         1 MLO       0.135000
     33 HAL         -1.5110     0.9200    -1.0860 ha         1 MLO       0.135000
     34 HAM          2.6020     2.8180     0.5290 hc         1 MLO       0.050450
     35 HAMA         3.8000     2.5350    -0.7230 hc         1 MLO       0.050450
     36 HAN         -5.1930     0.6420    -0.4050 hc         1 MLO       0.050450
     37 HANA        -4.1210     0.9510    -1.7600 hc         1 MLO       0.050450
     38 OAC          0.5370    -2.6260    -1.2950 oh         1 MLO      -0.482600
@<TRIPOS>BOND
     1     1     4 2   
     2     1    20 1   
     3     1    21 1   
     4     2     5 2   
     5     2    22 1   
     6     2    23 1   
     7     3    15 1   
     8     3    25 1   
     9     4    12 1   
    10     4    26 1   
    11     5    13 1   
    12     5    27 1   
    13     6     8 ar  
    14     6    14 ar  
    15     6    28 1   
    16     7     9 ar  
    17     7    15 ar  
    18     7    29 1   
    19     8    16 ar  
    20     8    30 1   
    21     9    17 ar  
    22     9    31 1   
    23    10    16 ar  
    24    10    18 ar  
    25    10    32 1   
    26    11    17 ar  
    27    11    19 ar  
    28    11    33 1   
    29    12    16 1   
    30    12    34 1   
    31    12    35 1   
    32    13    17 1   
    33    13    36 1   
    34    13    37 1   
    35    14    18 ar  
    36    14    38 1   
    37    15    19 ar  
    38    18    19 1   
    39    24    38 1   
@<TRIPOS>SUBSTRUCTURE
     1 MLO         1 TEMP              0 ****  ****    0 ROOT
