@<TRIPOS>MOLECULE
MLP
   14    14     1     0     0
SMALL
abcg2


@<TRIPOS>ATOM
      1 C1          -1.9030    -0.7860     0.6140 cx         1 MLP      -0.162400
      2 C2          -1.8150    -0.6540    -0.8850 cx         1 MLP      -0.162400
      3 C3          -0.9810     0.2200     0.0130 cx         1 MLP      -0.089800
      4 N4          -1.3230     1.6170     0.1770 n8         1 MLP      -0.936200
      5 P5           0.8450    -0.0790     0.0750 p5         1 MLP       1.320500
      6 O6           1.3970     0.8570    -1.0110 o          1 MLP      -0.935167
      7 O7           1.0230    -1.5710    -0.2320 o          1 MLP      -0.935167
      8 O8           1.2780     0.3100     1.4940 o          1 MLP      -0.935167
      9 H11         -1.4830    -1.6730     1.0750 hc         1 MLP       0.033450
     10 H12         -2.8130    -0.4340     1.0910 hc         1 MLP       0.033450
     11 H21         -2.6660    -0.2080    -1.3910 hc         1 MLP       0.033450
     12 H22         -1.3370    -1.4520    -1.4400 hc         1 MLP       0.033450
     13 HN41        -0.8090     2.1390    -0.5240 hn         1 MLP       0.351000
     14 HN42        -2.3040     1.7690    -0.0310 hn         1 MLP       0.351000
@<TRIPOS>BOND
     1     1     2 1   
     2     1     3 1   
     3     1     9 1   
     4     1    10 1   
     5     2     3 1   
     6     2    11 1   
     7     2    12 1   
     8     3     4 1   
     9     3     5 1   
    10     4    13 1   
    11     4    14 1   
    12     5     6 1   
    13     5     7 1   
    14     5     8 1   
@<TRIPOS>SUBSTRUCTURE
     1 MLP         1 TEMP              0 ****  ****    0 ROOT
