@<TRIPOS>MOLECULE
MLP
   14    14     1     0     0
SMALL
No Charge or Current Charge


@<TRIPOS>ATOM
      1 C1          -1.9110    -0.7740     0.6370 cx         1 MLP      -0.162400
      2 C2          -1.8520    -0.6150    -0.8580 cx         1 MLP      -0.162400
      3 C3          -0.9760     0.2560     0.0270 cx         1 MLP      -0.089800
      4 N4          -1.4670     1.6510     0.1370 n8         1 MLP      -0.936200
      5 P5           0.9320    -0.1290     0.0830 p5         1 MLP       1.320500
      6 O6           1.5690     0.7760    -0.9230 o          1 MLP      -0.935167
      7 O7           1.1340    -1.5700    -0.2630 o          1 MLP      -0.935167
      8 O8           1.3950     0.1770     1.4720 o          1 MLP      -0.935167
      9 H11         -1.4710    -1.6710     1.0650 hc         1 MLP       0.033450
     10 H12         -2.8070    -0.4260     1.1460 hc         1 MLP       0.033450
     11 H21         -2.7100    -0.1620    -1.3490 hc         1 MLP       0.033450
     12 H22         -1.3770    -1.4080    -1.4300 hc         1 MLP       0.033450
     13 HN41        -0.9270     2.2470    -0.5010 hn         1 MLP       0.351000
     14 HN42        -2.4260     1.7030    -0.2190 hn         1 MLP       0.351000
@<TRIPOS>BOND
     1     1     2 1   
     2     1     3 1   
     3     1     9 1   
     4     1    10 1   
     5     2     3 1   
     6     2    11 1   
     7     2    12 1   
     8     3     4 1   
     9     3     5 1   
    10     4    13 1   
    11     4    14 1   
    12     5     6 1   
    13     5     7 1   
    14     5     8 1   
@<TRIPOS>SUBSTRUCTURE
     1 MLP         1 TEMP              0 ****  ****    0 ROOT
