@<TRIPOS>MOLECULE
MLQ
   53    55     1     0     0
SMALL
No Charge or Current Charge


@<TRIPOS>ATOM
      1 N1          -1.7300     0.3750    -0.1960 nc         1 MLQ      -0.533100
      2 C2           4.9490    -0.3310    -2.0460 ca         1 MLQ       0.013000
      3 O2          -3.2620    -2.8740     0.9380 o          1 MLQ      -0.703500
      4 C4           2.1900     1.9230     0.0080 ca         1 MLQ       0.199000
      5 C5           1.7250     1.3680    -1.2070 ca         1 MLQ      -0.095000
      6 C6           0.4200     0.8430    -1.3050 ca         1 MLQ      -0.058000
      7 C19          5.0770    -0.4720     0.3880 ca         1 MLQ       0.202000
      8 C20          5.1440    -1.8710     0.2940 ca         1 MLQ      -0.123000
      9 C            5.1150    -2.4990    -0.9590 ca         1 MLQ       0.175000
     10 Cl           5.1970    -4.2530    -1.0630 cl         1 MLQ      -0.178000
     11 C3           4.9810     0.3090    -0.7870 ca         1 MLQ      -0.287500
     12 C1           5.0170    -1.7320    -2.1280 ca         1 MLQ      -0.113000
     13 S            4.8750     2.1000    -0.7210 sy         1 MLQ       1.147600
     14 O            5.9260     2.6320     0.1480 o          1 MLQ      -0.536000
     15 O3           4.6270     2.6500    -2.0570 o          1 MLQ      -0.536000
     16 N            3.4780     2.4420     0.1490 nu         1 MLQ      -0.861100
     17 C18          1.3260     1.9500     1.1210 ca         1 MLQ      -0.090000
     18 C17          0.0330     1.4200     0.9970 ca         1 MLQ      -0.190000
     19 C7          -0.4290     0.8700    -0.1880 ca         1 MLQ       0.142400
     20 S2          -1.1770     1.3650     2.2670 ss         1 MLQ      -0.012200
     21 C8          -2.1950     0.5730     1.0430 cd         1 MLQ       0.487100
     22 S1          -3.8570     0.1260     1.4590 ss         1 MLQ      -0.248200
     23 C9          -4.4180    -0.9690     0.0510 c3         1 MLQ      -0.047700
     24 C10         -3.5660    -2.2620    -0.0780 c          1 MLQ       0.733000
     25 O1          -3.2310    -2.6190    -1.2000 o          1 MLQ      -0.703500
     26 C11         -5.9230    -1.3050     0.2000 c3         1 MLQ      -0.063400
     27 C12         -6.8590    -0.0840     0.0380 c3         1 MLQ      -0.080400
     28 C13         -8.3550    -0.4550     0.1370 c3         1 MLQ      -0.075400
     29 C14         -9.2920     0.7630    -0.0240 c3         1 MLQ      -0.075400
     30 C15        -10.7880     0.3930     0.0750 c3         1 MLQ      -0.076400
     31 C16        -11.7220     1.6070    -0.0850 c3         1 MLQ      -0.087100
     32 H1           4.8720     0.2470    -2.9660 ha         1 MLQ       0.156000
     33 H3           2.3630     1.3430    -2.0850 ha         1 MLQ       0.134000
     34 H4           0.0690     0.4180    -2.2420 ha         1 MLQ       0.142000
     35 H5           5.2150    -2.4710     1.1960 ha         1 MLQ       0.142000
     36 H6           4.9920    -2.2230    -3.0970 ha         1 MLQ       0.145000
     37 H7           3.7890     2.6670     1.0840 hn         1 MLQ       0.489000
     38 H8           1.6560     2.3730     2.0660 ha         1 MLQ       0.114000
     39 H9          -4.2830    -0.4090    -0.8820 h1         1 MLQ       0.072700
     40 H10         -6.1900    -2.0500    -0.5600 hc         1 MLQ       0.056700
     41 H11         -6.0940    -1.7750     1.1760 hc         1 MLQ       0.056700
     42 H12         -6.6290     0.6630     0.8080 hc         1 MLQ       0.034700
     43 H13         -6.6690     0.3890    -0.9340 hc         1 MLQ       0.034700
     44 H14         -8.5950    -1.1970    -0.6350 hc         1 MLQ       0.035700
     45 H15         -8.5450    -0.9290     1.1080 hc         1 MLQ       0.035700
     46 H16         -9.0530     1.5050     0.7480 hc         1 MLQ       0.034200
     47 H17         -9.1020     1.2380    -0.9940 hc         1 MLQ       0.034200
     48 H18        -11.0310    -0.3480    -0.6970 hc         1 MLQ       0.035200
     49 H19        -10.9820    -0.0810     1.0460 hc         1 MLQ       0.035200
     50 H20        -11.5270     2.3520     0.6960 hc         1 MLQ       0.026033
     51 H21        -11.5760     2.0830    -1.0620 hc         1 MLQ       0.026033
     52 H22        -12.7700     1.2960    -0.0070 hc         1 MLQ       0.026033
     53 Cl1          5.0960     0.2340     2.0060 cl         1 MLQ      -0.187000
@<TRIPOS>BOND
     1     1    19 1   
     2     1    21 2   
     3     2    11 ar  
     4     2    12 ar  
     5     2    32 1   
     6     3    24 1   
     7     4     5 ar  
     8     4    16 1   
     9     4    17 ar  
    10     5     6 ar  
    11     5    33 1   
    12     6    19 ar  
    13     6    34 1   
    14     7     8 ar  
    15     7    11 ar  
    16     7    53 1   
    17     8     9 ar  
    18     8    35 1   
    19     9    10 1   
    20     9    12 ar  
    21    11    13 1   
    22    12    36 1   
    23    13    14 2   
    24    13    15 2   
    25    13    16 1   
    26    16    37 1   
    27    17    18 ar  
    28    17    38 1   
    29    18    19 ar  
    30    18    20 1   
    31    20    21 1   
    32    21    22 1   
    33    22    23 1   
    34    23    24 1   
    35    23    26 1   
    36    23    39 1   
    37    24    25 1   
    38    26    27 1   
    39    26    40 1   
    40    26    41 1   
    41    27    28 1   
    42    27    42 1   
    43    27    43 1   
    44    28    29 1   
    45    28    44 1   
    46    28    45 1   
    47    29    30 1   
    48    29    46 1   
    49    29    47 1   
    50    30    31 1   
    51    30    48 1   
    52    30    49 1   
    53    31    50 1   
    54    31    51 1   
    55    31    52 1   
@<TRIPOS>SUBSTRUCTURE
     1 MLQ         1 TEMP              0 ****  ****    0 ROOT
