@<TRIPOS>MOLECULE
MLQ
   53    55     1     0     0
SMALL
bcc


@<TRIPOS>ATOM
      1 N1          -1.5980     0.8100    -0.9460 nc         1 MLQ      -0.533100
      2 C2           4.2240    -1.0770    -1.0480 ca         1 MLQ      -0.005000
      3 O2          -2.6630    -2.3240    -1.0860 o          1 MLQ      -0.808800
      4 C4           2.3210     2.1260    -0.6230 ca         1 MLQ       0.060600
      5 C5           1.7080     2.1570    -1.8800 ca         1 MLQ      -0.113000
      6 C6           0.4090     1.7170    -2.0420 ca         1 MLQ      -0.076000
      7 C19          4.6740    -0.1790     1.1330 ca         1 MLQ       0.110400
      8 C20          4.4190    -1.4140     1.7030 ca         1 MLQ      -0.141000
      9 C            4.0720    -2.4740     0.8790 ca         1 MLQ       0.083400
     10 CL           3.7580    -4.0100     1.5890 cl         1 MLQ      -0.086400
     11 C3           4.5810    -0.0010    -0.2460 ca         1 MLQ      -0.287500
     12 C1           3.9700    -2.3190    -0.4930 ca         1 MLQ      -0.131000
     13 S            4.8750     1.5720    -1.0270 sy         1 MLQ       1.289200
     14 O            6.1190     2.1380    -0.5460 o          1 MLQ      -0.606800
     15 O3           4.6760     1.3680    -2.4480 o          1 MLQ      -0.606800
     16 N            3.6630     2.5700    -0.4890 nu         1 MLQ      -0.667500
     17 C18          1.6350     1.6680     0.4930 ca         1 MLQ      -0.108000
     18 C17          0.3250     1.2520     0.3230 ca         1 MLQ      -0.063100
     19 C7          -0.3000     1.2580    -0.9340 ca         1 MLQ       0.142400
     20 S2          -0.7820     0.6400     1.5080 ss         1 MLQ      -0.139100
     21 C8          -1.9770     0.4600     0.2320 cd         1 MLQ       0.487100
     22 S1          -3.5350    -0.1390     0.6710 ss         1 MLQ      -0.200300
     23 C9          -4.2360    -0.5110    -0.9670 c3         1 MLQ      -0.095600
     24 C10         -3.4140    -1.5830    -1.7340 c          1 MLQ       0.943600
     25 O1          -3.6520    -1.6080    -2.9560 o          1 MLQ      -0.808800
     26 C11         -5.6700    -0.9990    -0.7500 c3         1 MLQ      -0.063400
     27 C12         -6.6320     0.0350    -0.1780 c3         1 MLQ      -0.080400
     28 C13         -8.0460    -0.5150    -0.0330 c3         1 MLQ      -0.075400
     29 C14         -9.0370     0.5070     0.5080 c3         1 MLQ      -0.075400
     30 C15        -10.4430    -0.0550     0.6840 c3         1 MLQ      -0.076400
     31 C16        -11.4310     0.9720     1.2200 c3         1 MLQ      -0.087100
     32 H1           4.1410    -0.9530    -2.1180 ha         1 MLQ       0.174000
     33 H3           2.2530     2.5430    -2.7300 ha         1 MLQ       0.152000
     34 H4          -0.0640     1.7410    -3.0150 ha         1 MLQ       0.160000
     35 H5           4.4900    -1.5430     2.7740 ha         1 MLQ       0.160000
     36 H6           3.6970    -3.1500    -1.1270 ha         1 MLQ       0.163000
     37 H7           3.8890     2.9930     0.4060 hn         1 MLQ       0.433800
     38 H8           2.1070     1.6470     1.4670 ha         1 MLQ       0.132000
     39 H9          -4.2500     0.4190    -1.5390 h1         1 MLQ       0.072700
     40 H10         -6.0380    -1.3210    -1.7280 hc         1 MLQ       0.056700
     41 H11         -5.6580    -1.8920    -0.1160 hc         1 MLQ       0.056700
     42 H12         -6.2840     0.3860     0.7980 hc         1 MLQ       0.034700
     43 H13         -6.6440     0.9140    -0.8320 hc         1 MLQ       0.034700
     44 H14         -8.3950    -0.8810    -1.0040 hc         1 MLQ       0.035700
     45 H15         -8.0250    -1.3860     0.6310 hc         1 MLQ       0.035700
     46 H16         -8.6780     0.8890     1.4700 hc         1 MLQ       0.034200
     47 H17         -9.0740     1.3700    -0.1660 hc         1 MLQ       0.034200
     48 H18        -10.8010    -0.4410    -0.2750 hc         1 MLQ       0.035200
     49 H19        -10.4050    -0.9140     1.3610 hc         1 MLQ       0.035200
     50 H20        -11.1160     1.3530     2.1930 hc         1 MLQ       0.026033
     51 H21        -11.5180     1.8260     0.5460 hc         1 MLQ       0.026033
     52 H22        -12.4270     0.5440     1.3400 hc         1 MLQ       0.026033
     53 CL1          5.0700     1.1240     2.1890 cl         1 MLQ      -0.095400
@<TRIPOS>BOND
     1     1    19 1   
     2     1    21 2   
     3     2    11 ar  
     4     2    12 ar  
     5     2    32 1   
     6     3    24 1   
     7     4     5 ar  
     8     4    16 1   
     9     4    17 ar  
    10     5     6 ar  
    11     5    33 1   
    12     6    19 ar  
    13     6    34 1   
    14     7     8 ar  
    15     7    11 ar  
    16     7    53 1   
    17     8     9 ar  
    18     8    35 1   
    19     9    10 1   
    20     9    12 ar  
    21    11    13 1   
    22    12    36 1   
    23    13    14 2   
    24    13    15 2   
    25    13    16 1   
    26    16    37 1   
    27    17    18 ar  
    28    17    38 1   
    29    18    19 ar  
    30    18    20 1   
    31    20    21 1   
    32    21    22 1   
    33    22    23 1   
    34    23    24 1   
    35    23    26 1   
    36    23    39 1   
    37    24    25 1   
    38    26    27 1   
    39    26    40 1   
    40    26    41 1   
    41    27    28 1   
    42    27    42 1   
    43    27    43 1   
    44    28    29 1   
    45    28    44 1   
    46    28    45 1   
    47    29    30 1   
    48    29    46 1   
    49    29    47 1   
    50    30    31 1   
    51    30    48 1   
    52    30    49 1   
    53    31    50 1   
    54    31    51 1   
    55    31    52 1   
@<TRIPOS>SUBSTRUCTURE
     1 MLQ         1 TEMP              0 ****  ****    0 ROOT
