@<TRIPOS>MOLECULE
MLS
   40    42     1     0     0
SMALL
abcg2


@<TRIPOS>ATOM
      1 C16          3.2440     8.5080    20.6810 ca         1 MLS      -0.324500
      2 C17          1.9730     8.3180    21.1640 ca         1 MLS       0.017000
      3 C18          1.6840     8.6140    22.5150 ca         1 MLS      -0.068000
      4 C19          2.7250     9.1220    23.3520 ca         1 MLS       0.005000
      5 C20          2.4290     9.4220    24.7030 ca         1 MLS      -0.112000
      6 C21          1.1660     9.2280    25.2000 ca         1 MLS      -0.083000
      7 C22          0.1370     8.7240    24.3720 ca         1 MLS      -0.111000
      8 C02          6.0340    14.0470    20.5670 ca         1 MLS      -0.116300
      9 C03          5.3280    13.0330    19.9320 ca         1 MLS       0.178000
     10 F04          4.1040    12.7400    20.4570 f          1 MLS      -0.191000
     11 C05          5.7930    12.3340    18.8190 ca         1 MLS      -0.180600
     12 C06          7.0510    12.7020    18.3260 ca         1 MLS      -0.037000
     13 C07          7.7880    13.7060    18.9280 ca         1 MLS      -0.126000
     14 C08          7.2820    14.3710    20.0400 ca         1 MLS      -0.066000
     15 C09          5.0930    11.2170    18.0980 c          1 MLS       0.638700
     16 O10          5.5380    10.7590    17.0570 o          1 MLS      -0.536100
     17 N11          3.9570    10.7390    18.6860 ns         1 MLS      -0.392300
     18 N12          3.2920     9.6410    18.1650 n7         1 MLS      -0.554300
     19 S13          3.5730     8.1910    18.9760 sy         1 MLS       1.134600
     20 O14          4.9780     7.9100    18.8400 o          1 MLS      -0.520500
     21 O15          2.5890     7.2890    18.4330 o          1 MLS      -0.520500
     22 C23          0.3900     8.4240    23.0580 ca         1 MLS      -0.083000
     23 C24          4.0200     9.3070    22.8070 ca         1 MLS      -0.109000
     24 C25          4.2860     9.0050    21.4990 ca         1 MLS      -0.036000
     25 H171         1.1880     7.9390    20.5230 ha         1 MLS       0.134000
     26 H201         3.2190     9.8080    25.3360 ha         1 MLS       0.119000
     27 H211         0.9500     9.4600    26.2350 ha         1 MLS       0.118000
     28 H221        -0.8540     8.5760    24.7820 ha         1 MLS       0.120000
     29 H012         4.5020    15.2170    21.5250 hc         1 MLS       0.051033
     30 H013         5.2770    14.0440    22.5800 hc         1 MLS       0.051033
     31 H011         6.1440    15.5160    22.1180 hc         1 MLS       0.051033
     32 H061         7.4300    12.1740    17.4640 ha         1 MLS       0.150000
     33 H071         8.7600    13.9720    18.5340 ha         1 MLS       0.128000
     34 H081         7.8590    15.1560    20.5130 ha         1 MLS       0.121000
     35 H111         3.6180    11.1350    19.5500 hn         1 MLS       0.340500
     36 H121         2.2970     9.8120    18.0460 hn         1 MLS       0.471000
     37 H231        -0.3930     8.0390    22.4170 ha         1 MLS       0.120000
     38 H241         4.8070     9.6890    23.4460 ha         1 MLS       0.120000
     39 H251         5.2750     9.1400    21.0870 ha         1 MLS       0.140000
     40 C01          5.4590    14.7470    21.7650 c3         1 MLS      -0.041800
@<TRIPOS>BOND
     1     1     2 ar  
     2     1    19 1   
     3     1    24 ar  
     4     2     3 ar  
     5     2    25 1   
     6     3     4 ar  
     7     3    22 ar  
     8     4     5 ar  
     9     4    23 ar  
    10     5     6 ar  
    11     5    26 1   
    12     6     7 ar  
    13     6    27 1   
    14     7    22 ar  
    15     7    28 1   
    16     8     9 ar  
    17     8    14 ar  
    18     8    40 1   
    19     9    10 1   
    20     9    11 ar  
    21    11    12 ar  
    22    11    15 1   
    23    12    13 ar  
    24    12    32 1   
    25    13    14 ar  
    26    13    33 1   
    27    14    34 1   
    28    15    16 2   
    29    15    17 1   
    30    17    18 1   
    31    17    35 1   
    32    18    19 1   
    33    18    36 1   
    34    19    20 2   
    35    19    21 2   
    36    22    37 1   
    37    23    24 ar  
    38    23    38 1   
    39    24    39 1   
    40    29    40 1   
    41    30    40 1   
    42    31    40 1   
@<TRIPOS>SUBSTRUCTURE
     1 MLS         1 TEMP              0 ****  ****    0 ROOT
