@<TRIPOS>MOLECULE
MLS
   40    42     1     0     0
SMALL
No Charge or Current Charge


@<TRIPOS>ATOM
      1 C16          3.5270     8.1860    20.2590 ca         1 MLS      -0.324500
      2 C17          2.5890     8.9860    20.9460 ca         1 MLS       0.017000
      3 C18          2.9380     9.5930    22.1670 ca         1 MLS      -0.068000
      4 C19          4.2230     9.3890    22.7140 ca         1 MLS       0.005000
      5 C20          4.5770    10.0120    23.9260 ca         1 MLS      -0.112000
      6 C21          3.6540    10.8390    24.5890 ca         1 MLS      -0.083000
      7 C22          2.3750    11.0430    24.0450 ca         1 MLS      -0.111000
      8 C02          4.0780    13.5420    21.0280 ca         1 MLS      -0.116300
      9 C03          3.9810    12.4700    20.1150 ca         1 MLS       0.178000
     10 F04          2.7420    12.0500    19.7680 f          1 MLS      -0.191000
     11 C05          5.1470    11.8540    19.5830 ca         1 MLS      -0.180600
     12 C06          6.4070    12.3540    19.9910 ca         1 MLS      -0.037000
     13 C07          6.5020    13.4250    20.8940 ca         1 MLS      -0.126000
     14 C08          5.3440    14.0170    21.4140 ca         1 MLS      -0.066000
     15 C09          5.1240    10.6610    18.6440 c          1 MLS       0.638700
     16 O10          6.1590    10.1100    18.2890 o          1 MLS      -0.536100
     17 N11          3.8870    10.1830    18.2300 ns         1 MLS      -0.392300
     18 N12          3.6810     8.8560    17.6760 n7         1 MLS      -0.554300
     19 S13          3.1370     7.5560    18.6110 sy         1 MLS       1.134600
     20 O14          4.0110     6.4180    18.3070 o          1 MLS      -0.520500
     21 O15          1.6800     7.5130    18.4490 o          1 MLS      -0.520500
     22 C23          2.0160    10.4220    22.8360 ca         1 MLS      -0.083000
     23 C24          5.1490     8.5720    22.0400 ca         1 MLS      -0.109000
     24 C25          4.8070     7.9760    20.8140 ca         1 MLS      -0.036000
     25 H171         1.6050     9.1690    20.5170 ha         1 MLS       0.134000
     26 H201         5.5660     9.8610    24.3510 ha         1 MLS       0.119000
     27 H211         3.9310    11.3220    25.5240 ha         1 MLS       0.118000
     28 H221         1.6620    11.6850    24.5580 ha         1 MLS       0.120000
     29 H012         2.2130    14.6380    20.8090 hc         1 MLS       0.051033
     30 H013         2.1990    13.4430    22.1170 hc         1 MLS       0.051033
     31 H011         3.0570    14.9740    22.3260 hc         1 MLS       0.051033
     32 H061         7.3260    11.9090    19.6150 ha         1 MLS       0.150000
     33 H071         7.4800    13.7930    21.1950 ha         1 MLS       0.128000
     34 H081         5.4320    14.8430    22.1160 ha         1 MLS       0.121000
     35 H111         3.0950    10.7240    18.5720 hn         1 MLS       0.340500
     36 H121         3.1520     8.8180    16.8010 hn         1 MLS       0.471000
     37 H231         1.0250    10.5900    22.4190 ha         1 MLS       0.120000
     38 H241         6.1420     8.4140    22.4530 ha         1 MLS       0.120000
     39 H251         5.5490     7.3780    20.2870 ha         1 MLS       0.140000
     40 C01          2.8200    14.1860    21.6020 c3         1 MLS      -0.041800
@<TRIPOS>BOND
     1     1     2 ar  
     2     1    19 1   
     3     1    24 ar  
     4     2     3 ar  
     5     2    25 1   
     6     3     4 ar  
     7     3    22 ar  
     8     4     5 ar  
     9     4    23 ar  
    10     5     6 ar  
    11     5    26 1   
    12     6     7 ar  
    13     6    27 1   
    14     7    22 ar  
    15     7    28 1   
    16     8     9 ar  
    17     8    14 ar  
    18     8    40 1   
    19     9    10 1   
    20     9    11 ar  
    21    11    12 ar  
    22    11    15 1   
    23    12    13 ar  
    24    12    32 1   
    25    13    14 ar  
    26    13    33 1   
    27    14    34 1   
    28    15    16 2   
    29    15    17 1   
    30    17    18 1   
    31    17    35 1   
    32    18    19 1   
    33    18    36 1   
    34    19    20 2   
    35    19    21 2   
    36    22    37 1   
    37    23    24 ar  
    38    23    38 1   
    39    24    39 1   
    40    29    40 1   
    41    30    40 1   
    42    31    40 1   
@<TRIPOS>SUBSTRUCTURE
     1 MLS         1 TEMP              0 ****  ****    0 ROOT
