@<TRIPOS>MOLECULE
MLT
   13    12     1     0     0
SMALL
No Charge or Current Charge


@<TRIPOS>ATOM
      1 C1          14.7750    -5.9490    -2.0120 c          1 MLT       0.762000
      2 O1          14.1350    -5.0320    -2.5160 o          1 MLT      -0.754500
      3 O2          15.5360    -6.6600    -2.6610 o          1 MLT      -0.754500
      4 C2          14.7980    -6.0800    -0.4290 c3         1 MLT       0.063300
      5 O3          15.9980    -6.7200     0.0660 oh         1 MLT      -0.637000
      6 C3          13.5430    -6.8020     0.1390 c3         1 MLT      -0.211400
      7 C4          13.3600    -8.1970    -0.4920 c          1 MLT       0.719000
      8 O4          12.6980    -8.2830    -1.5140 o          1 MLT      -0.756500
      9 O5          13.8590    -9.1630     0.0660 o          1 MLT      -0.756500
     10 H2          14.7800    -5.0600    -0.0210 h1         1 MLT      -0.050300
     11 HO3         16.3640    -7.2120    -0.7030 ho         1 MLT       0.373000
     12 H31         13.7010    -6.8800     1.2220 hc         1 MLT       0.001700
     13 H32         12.6990    -6.1540    -0.1280 hc         1 MLT       0.001700
@<TRIPOS>BOND
     1     1     2 1   
     2     1     3 1   
     3     1     4 1   
     4     4     5 1   
     5     4     6 1   
     6     4    10 1   
     7     5    11 1   
     8     6     7 1   
     9     6    12 1   
    10     6    13 1   
    11     7     8 1   
    12     7     9 1   
@<TRIPOS>SUBSTRUCTURE
     1 MLT         1 TEMP              0 ****  ****    0 ROOT
