@<TRIPOS>MOLECULE
MLT
   13    12     1     0     0
SMALL
bcc


@<TRIPOS>ATOM
      1 C1          14.4820    -5.6930    -2.0720 c          1 MLT       0.972600
      2 O1          13.3820    -5.1040    -2.1370 o          1 MLT      -0.859800
      3 O2          15.2900    -5.8630    -3.0030 o          1 MLT      -0.859800
      4 C2          14.8890    -6.1560    -0.6550 c3         1 MLT       0.040100
      5 O3          16.1000    -6.8890    -0.6950 oh         1 MLT      -0.574800
      6 C3          13.7990    -6.9180     0.0860 c3         1 MLT      -0.211400
      7 C4          13.4260    -8.2980    -0.4850 c          1 MLT       0.929600
      8 O4          13.5010    -8.4500    -1.7200 o          1 MLT      -0.861800
      9 O5          13.0320    -9.1480     0.3430 o          1 MLT      -0.861800
     10 H2          15.0490    -5.2180    -0.0940 h1         1 MLT      -0.050300
     11 HO3         16.3160    -7.1260     0.2120 ho         1 MLT       0.334000
     12 H31         14.0840    -7.0290     1.1390 hc         1 MLT       0.001700
     13 H32         12.8960    -6.3010     0.0970 hc         1 MLT       0.001700
@<TRIPOS>BOND
     1     1     2 1   
     2     1     3 1   
     3     1     4 1   
     4     4     5 1   
     5     4     6 1   
     6     4    10 1   
     7     5    11 1   
     8     6     7 1   
     9     6    12 1   
    10     6    13 1   
    11     7     8 1   
    12     7     9 1   
@<TRIPOS>SUBSTRUCTURE
     1 MLT         1 TEMP              0 ****  ****    0 ROOT
