@<TRIPOS>MOLECULE
MLU
   24    23     1     0     0
SMALL
bcc


@<TRIPOS>ATOM
      1 N           20.6770    25.4200    26.3490 n7         1 MLU      -0.808200
      2 CN          20.5190    25.7150    24.9390 c3         1 MLU       0.159100
      3 CA          19.5050    25.7640    27.1430 c3         1 MLU       0.025500
      4 C           18.2510    24.9280    26.7870 c          1 MLU       0.901600
      5 O           18.4310    23.6960    26.6810 o          1 MLU      -0.842300
      6 CB          19.8640    25.5840    28.6210 c3         1 MLU      -0.042400
      7 CG          18.7660    25.8960    29.6390 c3         1 MLU      -0.056700
      8 CD1         19.2910    25.6460    31.0510 c3         1 MLU      -0.082100
      9 CD2         18.2410    27.3230    29.5140 c3         1 MLU      -0.082100
     10 OXT         17.1690    25.5360    26.6520 o          1 MLU      -0.842300
     11 H           20.8230    24.4210    26.4490 hn         1 MLU       0.351800
     12 HCN1        21.4100    25.4010    24.3940 h1         1 MLU       0.012700
     13 HCN2        19.6550    25.2340    24.4590 h1         1 MLU       0.012700
     14 HCN3        20.4130    26.7920    24.7950 h1         1 MLU       0.012700
     15 HA          19.2900    26.8220    26.9570 h1         1 MLU       0.040700
     16 HB2         20.1900    24.5480    28.7700 hc         1 MLU       0.021700
     17 HB3         20.7350    26.2120    28.8410 hc         1 MLU       0.021700
     18 HG          17.9290    25.2100    29.4710 hc         1 MLU       0.072700
     19 HD11        18.5130    25.8120    31.7990 hc         1 MLU       0.020367
     20 HD12        19.6530    24.6230    31.1690 hc         1 MLU       0.020367
     21 HD13        20.1200    26.3190    31.2840 hc         1 MLU       0.020367
     22 HD21        17.5100    27.5390    30.2960 hc         1 MLU       0.020367
     23 HD22        19.0520    28.0490    29.6110 hc         1 MLU       0.020367
     24 HD23        17.7530    27.4870    28.5540 hc         1 MLU       0.020367
@<TRIPOS>BOND
     1     1     2 1   
     2     1     3 1   
     3     1    11 1   
     4     2    12 1   
     5     2    13 1   
     6     2    14 1   
     7     3     4 1   
     8     3     6 1   
     9     3    15 1   
    10     4     5 1   
    11     4    10 1   
    12     6     7 1   
    13     6    16 1   
    14     6    17 1   
    15     7     8 1   
    16     7     9 1   
    17     7    18 1   
    18     8    19 1   
    19     8    20 1   
    20     8    21 1   
    21     9    22 1   
    22     9    23 1   
    23     9    24 1   
@<TRIPOS>SUBSTRUCTURE
     1 MLU         1 TEMP              0 ****  ****    0 ROOT
