@<TRIPOS>MOLECULE
MLU
   24    23     1     0     0
SMALL
No Charge or Current Charge


@<TRIPOS>ATOM
      1 N           20.6920    25.4390    26.2840 n7         1 MLU      -0.863400
      2 CN          20.5380    25.7480    24.8500 c3         1 MLU       0.159100
      3 CA          19.4880    25.7270    27.1390 c3         1 MLU       0.025500
      4 C           18.2160    24.8480    26.7940 c          1 MLU       0.691000
      5 O           18.3040    23.6290    26.8780 o          1 MLU      -0.737000
      6 CB          19.8930    25.5880    28.6360 c3         1 MLU      -0.042400
      7 CG          18.7820    25.9260    29.6720 c3         1 MLU      -0.056700
      8 CD1         19.2590    25.6220    31.1110 c3         1 MLU      -0.082100
      9 CD2         18.2810    27.3870    29.5620 c3         1 MLU      -0.082100
     10 OXT         17.2120    25.4140    26.3820 o          1 MLU      -0.737000
     11 H           20.8970    24.4350    26.3670 hn         1 MLU       0.407000
     12 HCN1        21.4650    25.5200    24.3080 h1         1 MLU       0.012700
     13 HCN2        19.7290    25.1530    24.4060 h1         1 MLU       0.012700
     14 HCN3        20.3080    26.8110    24.7030 h1         1 MLU       0.012700
     15 HA          19.1960    26.7730    26.9780 h1         1 MLU       0.040700
     16 HB2         20.2310    24.5590    28.8110 hc         1 MLU       0.021700
     17 HB3         20.7580    26.2340    28.8300 hc         1 MLU       0.021700
     18 HG          17.9240    25.2690    29.4800 hc         1 MLU       0.072700
     19 HD11        18.4570    25.8090    31.8350 hc         1 MLU       0.020367
     20 HD12        19.5600    24.5710    31.2070 hc         1 MLU       0.020367
     21 HD13        20.1170    26.2500    31.3790 hc         1 MLU       0.020367
     22 HD21        17.5300    27.5970    30.3330 hc         1 MLU       0.020367
     23 HD22        19.1090    28.0940    29.6910 hc         1 MLU       0.020367
     24 HD23        17.8140    27.5740    28.5880 hc         1 MLU       0.020367
@<TRIPOS>BOND
     1     1     2 1   
     2     1     3 1   
     3     1    11 1   
     4     2    12 1   
     5     2    13 1   
     6     2    14 1   
     7     3     4 1   
     8     3     6 1   
     9     3    15 1   
    10     4     5 1   
    11     4    10 1   
    12     6     7 1   
    13     6    16 1   
    14     6    17 1   
    15     7     8 1   
    16     7     9 1   
    17     7    18 1   
    18     8    19 1   
    19     8    20 1   
    20     8    21 1   
    21     9    22 1   
    22     9    23 1   
    23     9    24 1   
@<TRIPOS>SUBSTRUCTURE
     1 MLU         1 TEMP              0 ****  ****    0 ROOT
