@<TRIPOS>MOLECULE
MLV
   41    43     1     0     0
SMALL
abcg2


@<TRIPOS>ATOM
      1 C10         -5.1910   -10.3610    17.7580 c          1 MLV       0.642700
      2 C11         -5.8700   -11.6140    18.2150 ca         1 MLV      -0.194600
      3 C12         -7.0290   -13.6980    17.6630 cp         1 MLV      -0.069000
      4 C13         -6.3550   -12.5370    17.2940 ca         1 MLV       0.227000
      5 C14         -6.0710   -11.8640    19.5740 ca         1 MLV      -0.065000
      6 C15         -6.7450   -13.0080    19.9800 ca         1 MLV      -0.131000
      7 C16         -7.2130   -13.9090    19.0350 ca         1 MLV      -0.060000
      8 C20         -7.5180   -14.6840    16.6720 cp         1 MLV      -0.045000
      9 C21         -8.4820   -16.5880    14.8560 ca         1 MLV      -0.100000
     10 C22         -7.7860   -16.9930    15.9900 ca         1 MLV      -0.111500
     11 C23         -7.3100   -16.0490    16.8920 ca         1 MLV      -0.089000
     12 C25         -8.6970   -15.2320    14.6300 ca         1 MLV      -0.111500
     13 C24         -8.2170   -14.2860    15.5280 ca         1 MLV      -0.089000
     14 F26         -6.1040   -12.3190    15.9840 f          1 MLV      -0.158000
     15 O19         -5.6500    -9.6200    16.9080 o          1 MLV      -0.508100
     16 N09         -4.0170   -10.1270    18.4160 ns         1 MLV      -0.387300
     17 N08         -3.3120    -8.9540    18.2230 n7         1 MLV      -0.565300
     18 S07         -3.4390    -7.8250    19.4620 sy         1 MLV       1.141600
     19 O17         -2.4860    -6.8060    19.1050 o          1 MLV      -0.518000
     20 O18         -4.8380    -7.5110    19.5890 o          1 MLV      -0.518000
     21 C06         -2.9150    -8.6460    20.9360 ca         1 MLV      -0.327500
     22 C01         -3.8680    -9.1410    21.8210 ca         1 MLV      -0.019000
     23 C02         -3.4420    -9.8190    22.9570 ca         1 MLV      -0.128500
     24 C03         -2.0830    -9.9970    23.1940 ca         1 MLV      -0.053000
     25 C04         -1.1390    -9.4990    22.2980 ca         1 MLV      -0.128500
     26 C05         -1.5500    -8.8210    21.1600 ca         1 MLV      -0.019000
     27 H1          -5.7160   -11.1510    20.3060 ha         1 MLV       0.119000
     28 H2          -6.9130   -13.1910    21.0320 ha         1 MLV       0.124000
     29 H3          -7.7460   -14.7950    19.3550 ha         1 MLV       0.125000
     30 H4          -8.8540   -17.3230    14.1530 ha         1 MLV       0.115000
     31 H5          -7.6090   -18.0460    16.1730 ha         1 MLV       0.116000
     32 H6          -6.7610   -16.3720    17.7670 ha         1 MLV       0.118000
     33 H7          -9.2440   -14.9070    13.7530 ha         1 MLV       0.116000
     34 H8          -8.4000   -13.2360    15.3480 ha         1 MLV       0.118000
     35 H9          -3.6490   -10.8060    19.0700 hn         1 MLV       0.324500
     36 H10         -2.3470    -9.1080    17.9450 hn         1 MLV       0.473000
     37 H11         -4.9200    -8.9930    21.6250 ha         1 MLV       0.136500
     38 H12         -4.1730   -10.2060    23.6540 ha         1 MLV       0.122500
     39 H13         -1.7550   -10.5250    24.0800 ha         1 MLV       0.120000
     40 H14         -0.0830    -9.6380    22.4860 ha         1 MLV       0.122500
     41 H15         -0.8270    -8.4280    20.4590 ha         1 MLV       0.136500
@<TRIPOS>BOND
     1     1     2 1   
     2     1    15 2   
     3     1    16 1   
     4     2     4 ar  
     5     2     5 ar  
     6     3     4 ar  
     7     3     7 ar  
     8     3     8 1   
     9     4    14 1   
    10     5     6 ar  
    11     5    27 1   
    12     6     7 ar  
    13     6    28 1   
    14     7    29 1   
    15     8    11 ar  
    16     8    13 ar  
    17     9    10 ar  
    18     9    12 ar  
    19     9    30 1   
    20    10    11 ar  
    21    10    31 1   
    22    11    32 1   
    23    12    13 ar  
    24    12    33 1   
    25    13    34 1   
    26    16    17 1   
    27    16    35 1   
    28    17    18 1   
    29    17    36 1   
    30    18    19 2   
    31    18    20 2   
    32    18    21 1   
    33    21    22 ar  
    34    21    26 ar  
    35    22    23 ar  
    36    22    37 1   
    37    23    24 ar  
    38    23    38 1   
    39    24    25 ar  
    40    24    39 1   
    41    25    26 ar  
    42    25    40 1   
    43    26    41 1   
@<TRIPOS>SUBSTRUCTURE
     1 MLV         1 TEMP              0 ****  ****    0 ROOT
