@<TRIPOS>MOLECULE
MLV
   41    43     1     0     0
SMALL
No Charge or Current Charge


@<TRIPOS>ATOM
      1 C10         -4.6460   -10.2620    17.8170 c          1 MLV       0.642700
      2 C11         -4.8490   -11.7320    18.1060 ca         1 MLV      -0.194600
      3 C12         -6.0960   -13.8410    17.7460 cp         1 MLV      -0.069000
      4 C13         -5.8830   -12.4610    17.4710 ca         1 MLV       0.227000
      5 C14         -4.0210   -12.4040    19.0390 ca         1 MLV      -0.065000
      6 C15         -4.2160   -13.7640    19.3160 ca         1 MLV      -0.131000
      7 C16         -5.2390   -14.4760    18.6750 ca         1 MLV      -0.060000
      8 C20         -7.1810   -14.6290    17.0800 cp         1 MLV      -0.045000
      9 C21         -9.2320   -16.1500    15.8360 ca         1 MLV      -0.100000
     10 C22         -7.9310   -16.6690    15.9330 ca         1 MLV      -0.111500
     11 C23         -6.9170   -15.9170    16.5520 ca         1 MLV      -0.089000
     12 C25         -9.5180   -14.8780    16.3600 ca         1 MLV      -0.111500
     13 C24         -8.5030   -14.1270    16.9770 ca         1 MLV      -0.089000
     14 F26         -6.6540   -11.8570    16.5360 f          1 MLV      -0.158000
     15 O19         -5.5400    -9.5300    17.4130 o          1 MLV      -0.508100
     16 N09         -3.3770    -9.7640    18.1020 ns         1 MLV      -0.387300
     17 N08         -3.0450    -8.3500    18.1120 n7         1 MLV      -0.565300
     18 S07         -2.7900    -7.4610    19.5270 sy         1 MLV       1.141600
     19 O17         -1.3370    -7.3980    19.7180 o          1 MLV      -0.518000
     20 O18         -3.6360    -6.2670    19.4280 o          1 MLV      -0.518000
     21 C06         -3.4930    -8.5900    20.7510 ca         1 MLV      -0.327500
     22 C01         -4.8900    -8.6250    20.9530 ca         1 MLV      -0.019000
     23 C02         -5.4450    -9.5330    21.8700 ca         1 MLV      -0.128500
     24 C03         -4.6150   -10.4090    22.5890 ca         1 MLV      -0.053000
     25 C04         -3.2240   -10.3750    22.3910 ca         1 MLV      -0.128500
     26 C05         -2.6600    -9.4710    21.4750 ca         1 MLV      -0.019000
     27 H1          -3.2340   -11.8800    19.5770 ha         1 MLV       0.119000
     28 H2          -3.5770   -14.2680    20.0380 ha         1 MLV       0.124000
     29 H3          -5.3810   -15.5290    18.9110 ha         1 MLV       0.125000
     30 H4         -10.0170   -16.7320    15.3580 ha         1 MLV       0.115000
     31 H5          -7.7070   -17.6540    15.5290 ha         1 MLV       0.116000
     32 H6          -5.9130   -16.3310    16.6130 ha         1 MLV       0.118000
     33 H7         -10.5260   -14.4760    16.2910 ha         1 MLV       0.116000
     34 H8          -8.7450   -13.1510    17.3910 ha         1 MLV       0.118000
     35 H9          -2.7020   -10.4560    18.4190 hn         1 MLV       0.324500
     36 H10         -2.3070    -8.0630    17.4630 hn         1 MLV       0.473000
     37 H11         -5.5470    -7.9610    20.3920 ha         1 MLV       0.136500
     38 H12         -6.5220    -9.5610    22.0200 ha         1 MLV       0.122500
     39 H13         -5.0480   -11.1120    23.2970 ha         1 MLV       0.120000
     40 H14         -2.5810   -11.0550    22.9470 ha         1 MLV       0.122500
     41 H15         -1.5810    -9.4650    21.3270 ha         1 MLV       0.136500
@<TRIPOS>BOND
     1     1     2 1   
     2     1    15 2   
     3     1    16 1   
     4     2     4 ar  
     5     2     5 ar  
     6     3     4 ar  
     7     3     7 ar  
     8     3     8 1   
     9     4    14 1   
    10     5     6 ar  
    11     5    27 1   
    12     6     7 ar  
    13     6    28 1   
    14     7    29 1   
    15     8    11 ar  
    16     8    13 ar  
    17     9    10 ar  
    18     9    12 ar  
    19     9    30 1   
    20    10    11 ar  
    21    10    31 1   
    22    11    32 1   
    23    12    13 ar  
    24    12    33 1   
    25    13    34 1   
    26    16    17 1   
    27    16    35 1   
    28    17    18 1   
    29    17    36 1   
    30    18    19 2   
    31    18    20 2   
    32    18    21 1   
    33    21    22 ar  
    34    21    26 ar  
    35    22    23 ar  
    36    22    37 1   
    37    23    24 ar  
    38    23    38 1   
    39    24    25 ar  
    40    24    39 1   
    41    25    26 ar  
    42    25    40 1   
    43    26    41 1   
@<TRIPOS>SUBSTRUCTURE
     1 MLV         1 TEMP              0 ****  ****    0 ROOT
