@<TRIPOS>MOLECULE
MLW
   24    26     1     0     0
SMALL
No Charge or Current Charge


@<TRIPOS>ATOM
      1 C4           1.0770     0.3410     0.0080 cc         1 MLW      -0.184400
      2 C5           2.2910     1.1260     0.3080 c          1 MLW       0.597500
      3 C6           3.6020     0.6410    -0.1480 cc         1 MLW      -0.247200
      4 C7          -0.2760     0.8550    -0.0020 ca         1 MLW      -0.060800
      5 C8          -0.7610     2.1750    -0.0450 ca         1 MLW      -0.037000
      6 C9          -2.1580     2.3740    -0.0620 ca         1 MLW      -0.137000
      7 C10         -3.0380     1.2670    -0.0420 ca         1 MLW      -0.073000
      8 C11         -2.5240    -0.0450    -0.0100 ca         1 MLW       0.092000
      9 C12         -1.1310    -0.2160     0.0070 ca         1 MLW      -0.042200
     10 O            2.2100     2.2770     0.7200 o          1 MLW      -0.563100
     11 C            4.1200    -0.6390    -0.1830 cd         1 MLW      -0.141000
     12 C1           3.3780    -1.8530     0.0170 cd         1 MLW      -0.145000
     13 C2           1.9580    -2.0360     0.1260 cd         1 MLW      -0.166000
     14 C3           0.9360    -1.0390     0.0470 cd         1 MLW       0.033900
     15 N           -0.4250    -1.4050     0.0320 na         1 MLW      -0.205700
     16 Cl          -3.6110    -1.4310     0.0060 cl         1 MLW      -0.206000
     17 H1           4.3140     1.4560    -0.2250 ha         1 MLW       0.193000
     18 H2          -0.0860     3.0270    -0.0710 ha         1 MLW       0.147000
     19 H3          -2.5600     3.3840    -0.0930 ha         1 MLW       0.120000
     20 H4          -4.1140     1.4260    -0.0560 ha         1 MLW       0.128000
     21 H5           5.1900    -0.7390    -0.3530 ha         1 MLW       0.176000
     22 H6           3.9700    -2.7660     0.0330 ha         1 MLW       0.181000
     23 H7           1.6200    -3.0650     0.2170 ha         1 MLW       0.180000
     24 H8          -0.8080    -2.3430     0.0550 hn         1 MLW       0.362000
@<TRIPOS>BOND
     1     1     2 1   
     2     1     4 1   
     3     1    14 2   
     4     2     3 1   
     5     2    10 2   
     6     3    11 2   
     7     3    17 1   
     8     4     5 ar  
     9     4     9 ar  
    10     5     6 ar  
    11     5    18 1   
    12     6     7 ar  
    13     6    19 1   
    14     7     8 ar  
    15     7    20 1   
    16     8     9 ar  
    17     8    16 1   
    18     9    15 1   
    19    11    12 1   
    20    11    21 1   
    21    12    13 2   
    22    12    22 1   
    23    13    14 1   
    24    13    23 1   
    25    14    15 1   
    26    15    24 1   
@<TRIPOS>SUBSTRUCTURE
     1 MLW         1 TEMP              0 ****  ****    0 ROOT
