@<TRIPOS>MOLECULE
MLW
   24    26     1     0     0
SMALL
bcc


@<TRIPOS>ATOM
      1 C4           1.0950     0.3870     0.0100 cc         1 MLW      -0.184400
      2 C5           2.2880     1.2050     0.0060 c          1 MLW       0.597500
      3 C6           3.6220     0.6100     0.0020 cc         1 MLW      -0.197200
      4 C7          -0.2420     0.9120     0.0120 ca         1 MLW      -0.060800
      5 C8          -0.7940     2.2000     0.0120 ca         1 MLW      -0.055000
      6 C9          -2.1680     2.3320     0.0160 ca         1 MLW      -0.155000
      7 C10         -3.0180     1.2160     0.0200 ca         1 MLW      -0.091000
      8 C11         -2.4870    -0.0550     0.0200 ca         1 MLW       0.000400
      9 C12         -1.1040    -0.2000     0.0160 ca         1 MLW      -0.042200
     10 O            2.1970     2.4340     0.0060 o          1 MLW      -0.563100
     11 C            4.0340    -0.6780     0.0020 cd         1 MLW      -0.091000
     12 C1           3.2870    -1.8950     0.0080 cd         1 MLW      -0.095000
     13 C2           1.9440    -2.0480     0.0130 cd         1 MLW      -0.116000
     14 C3           0.9770    -1.0080     0.0120 cd         1 MLW       0.033900
     15 N           -0.3470    -1.3280     0.0160 na         1 MLW      -0.155400
     16 CL          -3.4900    -1.4620     0.0250 cl         1 MLW      -0.114400
     17 H1           4.4070     1.3590    -0.0030 ha         1 MLW       0.143000
     18 H2          -0.1600     3.0730     0.0090 ha         1 MLW       0.165000
     19 H3          -2.6110     3.3190     0.0170 ha         1 MLW       0.138000
     20 H4          -4.0910     1.3520     0.0240 ha         1 MLW       0.146000
     21 H5           5.1090    -0.8180    -0.0030 ha         1 MLW       0.126000
     22 H6           3.8780    -2.8020     0.0110 ha         1 MLW       0.131000
     23 H7           1.5560    -3.0600     0.0170 ha         1 MLW       0.130000
     24 H8          -0.7050    -2.2710     0.0180 hn         1 MLW       0.311700
@<TRIPOS>BOND
     1     1     2 1   
     2     1     4 1   
     3     1    14 2   
     4     2     3 1   
     5     2    10 2   
     6     3    11 2   
     7     3    17 1   
     8     4     5 ar  
     9     4     9 ar  
    10     5     6 ar  
    11     5    18 1   
    12     6     7 ar  
    13     6    19 1   
    14     7     8 ar  
    15     7    20 1   
    16     8     9 ar  
    17     8    16 1   
    18     9    15 1   
    19    11    12 1   
    20    11    21 1   
    21    12    13 2   
    22    12    22 1   
    23    13    14 1   
    24    13    23 1   
    25    14    15 1   
    26    15    24 1   
@<TRIPOS>SUBSTRUCTURE
     1 MLW         1 TEMP              0 ****  ****    0 ROOT
