@<TRIPOS>MOLECULE
MLY
   29    28     1     0     0
SMALL
No Charge or Current Charge


@<TRIPOS>ATOM
      1 N           30.4030    32.4350    87.0130 n8         1 MLY      -0.895800
      2 CA          30.2430    31.9280    85.5990 c3         1 MLY       0.022500
      3 CB          28.9950    32.5770    84.9290 c3         1 MLY      -0.046400
      4 CG          27.6310    32.3040    85.6190 c3         1 MLY      -0.073400
      5 CD          27.1940    30.8190    85.6160 c3         1 MLY      -0.078400
      6 CE          25.7860    30.6100    86.2230 c3         1 MLY       0.161800
      7 NZ          25.3730    29.1920    86.3780 n3         1 MLY      -0.710600
      8 CH1         24.1330    29.0610    87.1740 c3         1 MLY       0.153600
      9 CH2         25.2850    28.4500    85.0980 c3         1 MLY       0.153600
     10 C           31.5310    32.0070    84.6560 c          1 MLY       0.928600
     11 O           32.3340    31.0780    84.6870 o          1 MLY      -0.838800
     12 OXT         31.6960    32.9840    83.9270 o          1 MLY      -0.838800
     13 H           31.1190    31.8770    87.4910 hn         1 MLY       0.326300
     14 H2          29.5410    32.2520    87.5340 hn         1 MLY       0.326300
     15 HA          30.0260    30.8560    85.6990 h1         1 MLY      -0.003300
     16 HB2         29.1460    33.6630    84.8720 hc         1 MLY       0.044700
     17 HB3         28.9290    32.2240    83.8920 hc         1 MLY       0.044700
     18 HG2         27.6550    32.6750    86.6510 hc         1 MLY       0.021700
     19 HG3         26.8640    32.8920    85.1000 hc         1 MLY       0.021700
     20 HD2         27.2090    30.4510    84.5830 hc         1 MLY       0.047200
     21 HD3         27.9130    30.2210    86.1870 hc         1 MLY       0.047200
     22 HE2         25.7810    31.0910    87.2110 h1         1 MLY       0.022200
     23 HE3         25.0540    31.1460    85.6040 h1         1 MLY       0.022200
     24 HH11        23.8920    28.0030    87.3460 h1         1 MLY       0.023867
     25 HH12        24.2480    29.5430    88.1540 h1         1 MLY       0.023867
     26 HH13        23.2850    29.5280    86.6570 h1         1 MLY       0.023867
     27 HH21        24.9670    27.4130    85.2740 h1         1 MLY       0.023867
     28 HH22        24.5580    28.9210    84.4220 h1         1 MLY       0.023867
     29 HH23        26.2580    28.4120    84.5910 h1         1 MLY       0.023867
@<TRIPOS>BOND
     1     1     2 1   
     2     1    13 1   
     3     1    14 1   
     4     2     3 1   
     5     2    10 1   
     6     2    15 1   
     7     3     4 1   
     8     3    16 1   
     9     3    17 1   
    10     4     5 1   
    11     4    18 1   
    12     4    19 1   
    13     5     6 1   
    14     5    20 1   
    15     5    21 1   
    16     6     7 1   
    17     6    22 1   
    18     6    23 1   
    19     7     8 1   
    20     7     9 1   
    21     8    24 1   
    22     8    25 1   
    23     8    26 1   
    24     9    27 1   
    25     9    28 1   
    26     9    29 1   
    27    10    11 1   
    28    10    12 1   
@<TRIPOS>SUBSTRUCTURE
     1 MLY         1 TEMP              0 ****  ****    0 ROOT
