@<TRIPOS>MOLECULE
MLY
   29    28     1     0     0
SMALL
bcc


@<TRIPOS>ATOM
      1 N           30.2920    32.1770    86.9630 n8         1 MLY      -0.895800
      2 CA          30.1520    31.8120    85.5590 c3         1 MLY       0.022500
      3 CB          28.9560    32.5420    84.9460 c3         1 MLY      -0.046400
      4 CG          27.6300    32.2820    85.6560 c3         1 MLY      -0.073400
      5 CD          27.2010    30.8180    85.6390 c3         1 MLY      -0.078400
      6 CE          25.8070    30.6290    86.2190 c3         1 MLY       0.161800
      7 NZ          25.4130    29.2390    86.3730 n3         1 MLY      -0.710600
      8 CH1         24.1830    29.1340    87.1270 c3         1 MLY       0.153600
      9 CH2         25.2860    28.5540    85.1040 c3         1 MLY       0.153600
     10 C           31.4580    32.0860    84.7710 c          1 MLY       0.928600
     11 O           32.4920    32.3010    85.4360 o          1 MLY      -0.838800
     12 OXT         31.3750    32.0280    83.5280 o          1 MLY      -0.838800
     13 H           31.2480    31.9960    87.2400 hn         1 MLY       0.326300
     14 H2          29.7020    31.5870    87.5360 hn         1 MLY       0.326300
     15 HA          29.9770    30.7290    85.4380 h1         1 MLY      -0.003300
     16 HB2         29.1580    33.6180    84.9600 hc         1 MLY       0.044700
     17 HB3         28.8610    32.2540    83.8970 hc         1 MLY       0.044700
     18 HG2         27.6830    32.6380    86.6890 hc         1 MLY       0.021700
     19 HG3         26.8530    32.8850    85.1740 hc         1 MLY       0.021700
     20 HD2         27.2440    30.4540    84.6080 hc         1 MLY       0.047200
     21 HD3         27.9040    30.2080    86.2140 hc         1 MLY       0.047200
     22 HE2         25.7840    31.0900    87.2110 h1         1 MLY       0.022200
     23 HE3         25.0780    31.1870    85.6030 h1         1 MLY       0.022200
     24 HH11        23.9290    28.0850    87.2860 h1         1 MLY       0.023867
     25 HH12        24.3000    29.6000    88.1060 h1         1 MLY       0.023867
     26 HH13        23.3250    29.6120    86.6290 h1         1 MLY       0.023867
     27 HH21        24.9890    27.5180    85.2710 h1         1 MLY       0.023867
     28 HH22        24.5350    29.0140    84.4400 h1         1 MLY       0.023867
     29 HH23        26.2350    28.5360    84.5690 h1         1 MLY       0.023867
@<TRIPOS>BOND
     1     1     2 1   
     2     1    13 1   
     3     1    14 1   
     4     2     3 1   
     5     2    10 1   
     6     2    15 1   
     7     3     4 1   
     8     3    16 1   
     9     3    17 1   
    10     4     5 1   
    11     4    18 1   
    12     4    19 1   
    13     5     6 1   
    14     5    20 1   
    15     5    21 1   
    16     6     7 1   
    17     6    22 1   
    18     6    23 1   
    19     7     8 1   
    20     7     9 1   
    21     8    24 1   
    22     8    25 1   
    23     8    26 1   
    24     9    27 1   
    25     9    28 1   
    26     9    29 1   
    27    10    11 1   
    28    10    12 1   
@<TRIPOS>SUBSTRUCTURE
     1 MLY         1 TEMP              0 ****  ****    0 ROOT
