@<TRIPOS>MOLECULE
MM0
   62    66     1     0     0
SMALL
bcc


@<TRIPOS>ATOM
      1 C1          -5.1560     0.3910    -0.7170 ca         1 MM0      -0.087300
      2 C2          -5.6860    -0.9060    -0.4710 ca         1 MM0      -0.090000
      3 C3          -3.8070     0.5830    -0.6290 ca         1 MM0      -0.102000
      4 C5          -0.7610    -1.4010     0.1600 ca         1 MM0      -0.221600
      5 C6          -1.4030    -2.6530     0.3970 ca         1 MM0       0.439600
      6 C8           0.7300    -3.6930     0.9200 ca         1 MM0      -0.103000
      7 C9           2.7850    -2.3260     0.8550 ca         1 MM0      -0.063000
      8 C10          4.8000    -0.8910     0.7870 ca         1 MM0      -0.107000
      9 C12          4.5350     1.4070     0.1350 ca         1 MM0      -0.092000
     10 C13          3.1900     1.2490    -0.0220 ca         1 MM0      -0.179300
     11 C4          -4.8780    -1.9560    -0.1520 ca         1 MM0      -0.181300
     12 C7          -0.6040    -3.7930     0.7760 ca         1 MM0      -0.170300
     13 C11          5.3650     0.3320     0.5580 ca         1 MM0      -0.081300
     14 N1          -2.7080    -2.8230     0.2900 nb         1 MM0      -0.666000
     15 C14         -1.5500    -0.3260    -0.1900 ca         1 MM0      -0.032000
     16 C15         -2.9360    -0.4850    -0.2980 ca         1 MM0      -0.160300
     17 N2          -7.1330     1.6350    -0.0510 n7         1 MM0      -0.810200
     18 C16         -3.4740    -1.7770    -0.0470 ca         1 MM0       0.422600
     19 C17         -8.0860     2.6900    -0.3390 c3         1 MM0       0.159800
     20 C18         -9.1720     2.7580     0.7230 c3         1 MM0      -0.078400
     21 N3           7.4380     1.1540    -0.4230 n7         1 MM0      -0.807200
     22 C19        -10.1700     3.8770     0.4590 c3         1 MM0      -0.089100
     23 C20          6.8340     0.5740     0.7600 c3         1 MM0       0.205100
     24 C21          8.8290     1.5180    -0.2250 c3         1 MM0       0.157800
     25 C22          9.4440     2.0870    -1.4930 c3         1 MM0      -0.079400
     26 C23         10.8960     2.4990    -1.2910 c3         1 MM0      -0.089100
     27 C           -6.0920     1.5170    -1.0530 c3         1 MM0       0.206100
     28 C4A          1.4200    -2.4500     0.6970 ca         1 MM0      -0.158300
     29 C9A          0.6840    -1.2930     0.3060 ca         1 MM0       0.460600
     30 C10A         3.4060    -1.0930     0.6280 ca         1 MM0      -0.151300
     31 C8A          2.5810    -0.0080     0.2250 ca         1 MM0       0.421600
     32 N            1.2540    -0.1300     0.0770 nb         1 MM0      -0.674000
     33 H           -5.5140     2.4430    -1.1930 h1         1 MM0       0.037700
     34 HA          -6.5730     1.3090    -2.0140 h1         1 MM0       0.037700
     35 H2          -6.7570    -1.0500    -0.5380 ha         1 MM0       0.149000
     36 H14         -1.0990     0.6410    -0.3760 ha         1 MM0       0.159000
     37 H20          6.9630     1.2840     1.5830 h1         1 MM0       0.037200
     38 H9           3.3760    -3.1840     1.1560 ha         1 MM0       0.138000
     39 H17         -7.6050     3.6780    -0.4330 h1         1 MM0       0.027700
     40 H20A         7.3180    -0.3600     1.0830 h1         1 MM0       0.037200
     41 HN3          7.3770     0.4830    -1.1810 hn         1 MM0       0.355800
     42 H21          8.8740     2.2720     0.5670 h1         1 MM0       0.028700
     43 H22          9.3840     1.3400    -2.2920 hc         1 MM0       0.045700
     44 H3          -3.3820     1.5650    -0.8060 ha         1 MM0       0.133000
     45 H4          -5.2870    -2.9410     0.0330 ha         1 MM0       0.150000
     46 H7          -1.1160    -4.7310     0.9480 ha         1 MM0       0.152000
     47 H8           1.3150    -4.5560     1.2120 ha         1 MM0       0.135000
     48 H10          5.4140    -1.7280     1.1010 ha         1 MM0       0.131000
     49 H12          4.9900     2.3690    -0.0640 ha         1 MM0       0.149000
     50 H13          2.5640     2.0750    -0.3340 ha         1 MM0       0.149000
     51 HN2         -6.7020     1.8180     0.8480 hn         1 MM0       0.355800
     52 H17A        -8.5410     2.4820    -1.3120 h1         1 MM0       0.027700
     53 H18         -9.6890     1.7960     0.7680 hc         1 MM0       0.045200
     54 H18A        -8.7090     2.9070     1.7040 hc         1 MM0       0.045200
     55 H19        -10.6720     3.7430    -0.5000 hc         1 MM0       0.033033
     56 H19A       -10.9390     3.9140     1.2310 hc         1 MM0       0.033033
     57 H19B        -9.6770     4.8500     0.4370 hc         1 MM0       0.033033
     58 H21A         9.4420     0.6700     0.1250 h1         1 MM0       0.028700
     59 H22A         8.8530     2.9450    -1.8240 hc         1 MM0       0.045700
     60 H23         10.9830     3.2870    -0.5400 hc         1 MM0       0.033367
     61 H23A        11.5030     1.6560    -0.9560 hc         1 MM0       0.033367
     62 H23B        11.3350     2.8750    -2.2140 hc         1 MM0       0.033367
@<TRIPOS>BOND
     1     1     2 ar  
     2     1     3 ar  
     3     1    27 1   
     4     2    11 ar  
     5     2    35 1   
     6     3    16 ar  
     7     3    44 1   
     8     4     5 ar  
     9     4    15 ar  
    10     4    29 ar  
    11     5    12 ar  
    12     5    14 ar  
    13     6    12 ar  
    14     6    28 ar  
    15     6    47 1   
    16     7    28 ar  
    17     7    30 ar  
    18     7    38 1   
    19     8    13 ar  
    20     8    30 ar  
    21     8    48 1   
    22     9    10 ar  
    23     9    13 ar  
    24     9    49 1   
    25    10    31 ar  
    26    10    50 1   
    27    11    18 ar  
    28    11    45 1   
    29    12    46 1   
    30    13    23 1   
    31    14    18 ar  
    32    15    16 ar  
    33    15    36 1   
    34    16    18 ar  
    35    17    19 1   
    36    17    27 1   
    37    17    51 1   
    38    19    20 1   
    39    19    39 1   
    40    19    52 1   
    41    20    22 1   
    42    20    53 1   
    43    20    54 1   
    44    21    23 1   
    45    21    24 1   
    46    21    41 1   
    47    22    55 1   
    48    22    56 1   
    49    22    57 1   
    50    23    37 1   
    51    23    40 1   
    52    24    25 1   
    53    24    42 1   
    54    24    58 1   
    55    25    26 1   
    56    25    43 1   
    57    25    59 1   
    58    26    60 1   
    59    26    61 1   
    60    26    62 1   
    61    27    33 1   
    62    27    34 1   
    63    28    29 ar  
    64    29    32 ar  
    65    30    31 ar  
    66    31    32 ar  
@<TRIPOS>SUBSTRUCTURE
     1 MM0         1 TEMP              0 ****  ****    0 ROOT
