@<TRIPOS>MOLECULE
MM0
   62    66     1     0     0
SMALL
No Charge or Current Charge


@<TRIPOS>ATOM
      1 C1          -5.3090     0.0500    -0.9780 ca         1 MM0      -0.087300
      2 C2          -5.7450    -1.2840    -0.8800 ca         1 MM0      -0.072000
      3 C3          -3.9500     0.3470    -0.7680 ca         1 MM0      -0.084000
      4 C5          -0.7840    -1.4330     0.0480 ca         1 MM0      -0.091000
      5 C6          -1.3000    -2.7500     0.1280 ca         1 MM0       0.309000
      6 C8           0.9350    -3.5810     0.6470 ca         1 MM0      -0.085000
      7 C9           2.8160    -2.0540     0.7890 ca         1 MM0      -0.045000
      8 C10          4.6740    -0.4820     0.9210 ca         1 MM0      -0.089000
      9 C12          4.2790     1.8820     0.5350 ca         1 MM0      -0.074000
     10 C13          2.9150     1.6170     0.3200 ca         1 MM0      -0.096000
     11 C4          -4.8300    -2.3080    -0.5770 ca         1 MM0      -0.098000
     12 C7          -0.4290    -3.8090     0.4280 ca         1 MM0      -0.087000
     13 C11          5.1670     0.8340     0.8380 ca         1 MM0      -0.081300
     14 N1          -2.6110    -3.0260    -0.0760 nb         1 MM0      -0.666000
     15 C14         -1.6800    -0.3840    -0.2560 ca         1 MM0      -0.014000
     16 C15         -3.0370    -0.6820    -0.4640 ca         1 MM0      -0.095000
     17 N2          -7.0500     1.5530    -0.1040 n7         1 MM0      -0.865400
     18 C16         -3.4690    -2.0230    -0.3660 ca         1 MM0       0.292000
     19 C17         -8.0190     2.6440    -0.3010 c3         1 MM0       0.159800
     20 C18         -8.7420     2.9580     1.0240 c3         1 MM0      -0.078400
     21 N3           7.3510     1.2630    -0.2120 n7         1 MM0      -0.862400
     22 C19         -9.7780     4.0910     0.8890 c3         1 MM0      -0.089100
     23 C20          6.6430     1.1230     1.0720 c3         1 MM0       0.205100
     24 C21          8.7980     1.5150    -0.1040 c3         1 MM0       0.157800
     25 C22          9.4200     1.6520    -1.5080 c3         1 MM0      -0.079400
     26 C23         10.9370     1.9230    -1.4700 c3         1 MM0      -0.089100
     27 C           -6.3000     1.1580    -1.3090 c3         1 MM0       0.206100
     28 C4A          1.4460    -2.2760     0.5680 ca         1 MM0      -0.093000
     29 C9A          0.5960    -1.1810     0.2670 ca         1 MM0       0.330000
     30 C10A         3.3070    -0.7430     0.7050 ca         1 MM0      -0.086000
     31 C8A          2.4100     0.3070     0.4010 ca         1 MM0       0.291000
     32 N            1.0930     0.0810     0.1900 nb         1 MM0      -0.674000
     33 H           -5.7560     2.0180    -1.7220 h1         1 MM0       0.037700
     34 HA          -6.9880     0.8020    -2.0890 h1         1 MM0       0.037700
     35 H2          -6.7940    -1.5260    -1.0360 ha         1 MM0       0.131000
     36 H14         -1.3380     0.6460    -0.3300 ha         1 MM0       0.141000
     37 H20          6.7380     2.0430     1.6650 h1         1 MM0       0.037200
     38 H9           3.4830    -2.8810     1.0210 ha         1 MM0       0.120000
     39 H17         -7.5090     3.5510    -0.6550 h1         1 MM0       0.027700
     40 H20A         7.0810     0.3070     1.6650 h1         1 MM0       0.037200
     41 HN3          7.2150     0.3930    -0.7390 hn         1 MM0       0.411000
     42 H21          8.9830     2.4390     0.4610 h1         1 MM0       0.028700
     43 H22          9.2370     0.7340    -2.0800 hc         1 MM0       0.045700
     44 H3          -3.6050     1.3770    -0.8410 ha         1 MM0       0.115000
     45 H4          -5.1790    -3.3340    -0.5030 ha         1 MM0       0.132000
     46 H7          -0.8190    -4.8210     0.4900 ha         1 MM0       0.134000
     47 H8           1.5910    -4.4180     0.8780 ha         1 MM0       0.117000
     48 H10          5.3540    -1.3000     1.1540 ha         1 MM0       0.113000
     49 H12          4.6480     2.9030     0.4630 ha         1 MM0       0.131000
     50 H13          2.2400     2.4360     0.0860 ha         1 MM0       0.131000
     51 HN2         -6.3680     1.8540     0.6020 hn         1 MM0       0.411000
     52 H17A        -8.7640     2.3610    -1.0570 h1         1 MM0       0.027700
     53 H18         -9.2490     2.0540     1.3850 hc         1 MM0       0.045200
     54 H18A        -8.0040     3.2400     1.7860 hc         1 MM0       0.045200
     55 H19        -10.5510     3.8250     0.1580 hc         1 MM0       0.033033
     56 H19A       -10.2670     4.2800     1.8530 hc         1 MM0       0.033033
     57 H19B        -9.2960     5.0200     0.5610 hc         1 MM0       0.033033
     58 H21A         9.2920     0.6900     0.4280 h1         1 MM0       0.028700
     59 H22A         8.9260     2.4710    -2.0460 hc         1 MM0       0.045700
     60 H23         11.1510     2.8550    -0.9330 hc         1 MM0       0.033367
     61 H23A        11.4640     1.1040    -0.9660 hc         1 MM0       0.033367
     62 H23B        11.3350     2.0130    -2.4870 hc         1 MM0       0.033367
@<TRIPOS>BOND
     1     1     2 ar  
     2     1     3 ar  
     3     1    27 1   
     4     2    11 ar  
     5     2    35 1   
     6     3    16 ar  
     7     3    44 1   
     8     4     5 ar  
     9     4    15 ar  
    10     4    29 ar  
    11     5    12 ar  
    12     5    14 ar  
    13     6    12 ar  
    14     6    28 ar  
    15     6    47 1   
    16     7    28 ar  
    17     7    30 ar  
    18     7    38 1   
    19     8    13 ar  
    20     8    30 ar  
    21     8    48 1   
    22     9    10 ar  
    23     9    13 ar  
    24     9    49 1   
    25    10    31 ar  
    26    10    50 1   
    27    11    18 ar  
    28    11    45 1   
    29    12    46 1   
    30    13    23 1   
    31    14    18 ar  
    32    15    16 ar  
    33    15    36 1   
    34    16    18 ar  
    35    17    19 1   
    36    17    27 1   
    37    17    51 1   
    38    19    20 1   
    39    19    39 1   
    40    19    52 1   
    41    20    22 1   
    42    20    53 1   
    43    20    54 1   
    44    21    23 1   
    45    21    24 1   
    46    21    41 1   
    47    22    55 1   
    48    22    56 1   
    49    22    57 1   
    50    23    37 1   
    51    23    40 1   
    52    24    25 1   
    53    24    42 1   
    54    24    58 1   
    55    25    26 1   
    56    25    43 1   
    57    25    59 1   
    58    26    60 1   
    59    26    61 1   
    60    26    62 1   
    61    27    33 1   
    62    27    34 1   
    63    28    29 ar  
    64    29    32 ar  
    65    30    31 ar  
    66    31    32 ar  
@<TRIPOS>SUBSTRUCTURE
     1 MM0         1 TEMP              0 ****  ****    0 ROOT
