@<TRIPOS>MOLECULE
MM3
   46    47     1     0     0
SMALL
No Charge or Current Charge


@<TRIPOS>ATOM
      1 C1          -1.3220    -0.2030     1.3870 ca         1 MM3      -0.337500
      2 C2          -2.0490     1.0020     1.3600 ca         1 MM3       0.032500
      3 C3          -1.7900     1.9910     2.3230 ca         1 MM3      -0.200500
      4 C4          -0.8190     1.7850     3.3150 ca         1 MM3       0.198100
      5 C5          -0.0980     0.5730     3.3440 ca         1 MM3      -0.200500
      6 C6          -0.3520    -0.4200     2.3840 ca         1 MM3       0.032500
      7 O7          -0.6120     2.7970     4.2300 os         1 MM3      -0.335100
      8 C8           0.3590     2.6880     5.2860 c3         1 MM3       0.145900
      9 S9          -1.6150    -1.4750     0.1530 sy         1 MM3       1.178600
     10 O10         -1.7360    -2.7440     0.8770 o          1 MM3      -0.539500
     11 O11         -2.6280    -1.0210    -0.8040 o          1 MM3      -0.539500
     12 N12         -0.1250    -1.5610    -0.6760 n3         1 MM3      -0.763500
     13 C13          0.5650    -0.2510    -0.9970 c3         1 MM3       0.164500
     14 C14          2.0960    -0.3270    -1.4060 c3         1 MM3       0.116000
     15 S15          2.9450    -1.7640    -0.5620 ss         1 MM3      -0.439000
     16 C16          2.4800    -3.2160    -1.6230 c3         1 MM3       0.069600
     17 C17          1.0250    -3.6740    -1.4020 c3         1 MM3      -0.085400
     18 C18         -0.0690    -2.6280    -1.6990 c3         1 MM3       0.230800
     19 C19          2.8370     0.9270    -0.8670 c3         1 MM3      -0.090100
     20 C20          2.3600    -0.3890    -2.9400 c3         1 MM3      -0.090100
     21 C           -0.2340     0.7290    -1.9310 c          1 MM3       0.584100
     22 NA          -0.5110     1.9820    -1.3810 ns         1 MM3      -0.374400
     23 OA          -1.4630     2.8750    -2.0080 oh         1 MM3      -0.417100
     24 OB          -0.6190     0.4240    -3.0560 o          1 MM3      -0.553100
     25 H21         -2.8090     1.1810     0.5990 ha         1 MM3       0.136500
     26 H31         -2.3480     2.9230     2.3030 ha         1 MM3       0.128500
     27 H51          0.6590     0.3840     4.0980 ha         1 MM3       0.128500
     28 H61          0.2150    -1.3510     2.4070 ha         1 MM3       0.136500
     29 H81          0.3610     3.6000     5.8960 h1         1 MM3       0.047033
     30 H82          0.1290     1.8410     5.9440 h1         1 MM3       0.047033
     31 H83          1.3680     2.5530     4.8760 h1         1 MM3       0.047033
     32 H131         0.6090     0.2830    -0.0440 h1         1 MM3       0.068700
     33 H161         3.1440    -4.0490    -1.3540 h1         1 MM3       0.068700
     34 H162         2.6590    -3.0000    -2.6820 h1         1 MM3       0.068700
     35 H171         0.9120    -4.0190    -0.3670 hc         1 MM3       0.058700
     36 H172         0.8450    -4.5480    -2.0400 hc         1 MM3       0.058700
     37 H181        -1.0210    -3.1760    -1.7340 h1         1 MM3       0.071200
     38 H182         0.0610    -2.2180    -2.7070 h1         1 MM3       0.071200
     39 H191         3.9050     0.8860    -1.1160 hc         1 MM3       0.050367
     40 H192         2.4290     1.8490    -1.2980 hc         1 MM3       0.050367
     41 H193         2.7550     0.9960     0.2250 hc         1 MM3       0.050367
     42 H201         1.7610    -1.1540    -3.4420 hc         1 MM3       0.050367
     43 H202         2.1260     0.5690    -3.4200 hc         1 MM3       0.050367
     44 H203         3.4170    -0.6010    -3.1420 hc         1 MM3       0.050367
     45 HNA         -0.3260     2.1530    -0.3930 hn         1 MM3       0.332500
     46 HOA         -0.9800     3.7330    -2.0600 ho         1 MM3       0.443000
@<TRIPOS>BOND
     1     1     2 ar  
     2     1     6 ar  
     3     1     9 1   
     4     2     3 ar  
     5     2    25 1   
     6     3     4 ar  
     7     3    26 1   
     8     4     5 ar  
     9     4     7 1   
    10     5     6 ar  
    11     5    27 1   
    12     6    28 1   
    13     7     8 1   
    14     8    29 1   
    15     8    30 1   
    16     8    31 1   
    17     9    10 2   
    18     9    11 2   
    19     9    12 1   
    20    12    13 1   
    21    12    18 1   
    22    13    14 1   
    23    13    21 1   
    24    13    32 1   
    25    14    15 1   
    26    14    19 1   
    27    14    20 1   
    28    15    16 1   
    29    16    17 1   
    30    16    33 1   
    31    16    34 1   
    32    17    18 1   
    33    17    35 1   
    34    17    36 1   
    35    18    37 1   
    36    18    38 1   
    37    19    39 1   
    38    19    40 1   
    39    19    41 1   
    40    20    42 1   
    41    20    43 1   
    42    20    44 1   
    43    21    22 1   
    44    21    24 2   
    45    22    23 1   
    46    22    45 1   
    47    23    46 1   
@<TRIPOS>SUBSTRUCTURE
     1 MM3         1 TEMP              0 ****  ****    0 ROOT
