@<TRIPOS>MOLECULE
MM3
   46    47     1     0     0
SMALL
bcc


@<TRIPOS>ATOM
      1 C1          -1.2070    -0.0670     1.4040 ca         1 MM3      -0.337500
      2 C2          -1.7950     1.1610     1.6930 ca         1 MM3       0.014500
      3 C3          -1.4400     1.8330     2.8440 ca         1 MM3      -0.218500
      4 C4          -0.4990     1.2840     3.7210 ca         1 MM3       0.198100
      5 C5           0.0910     0.0540     3.4200 ca         1 MM3      -0.218500
      6 C6          -0.2660    -0.6160     2.2640 ca         1 MM3       0.014500
      7 O7          -0.2260     2.0000     4.8160 os         1 MM3      -0.311900
      8 C8           0.7180     1.5000     5.7480 c3         1 MM3       0.122700
      9 S9          -1.7080    -0.9760    -0.0210 sy         1 MM3       1.320200
     10 O10         -2.1280    -2.3090     0.3860 o          1 MM3      -0.610300
     11 O11         -2.6540    -0.1420    -0.7540 o          1 MM3      -0.610300
     12 N12         -0.3110    -1.1590    -0.8820 n3         1 MM3      -0.763500
     13 C13          0.2710     0.0790    -1.3570 c3         1 MM3       0.164500
     14 C14          1.8270     0.0620    -1.5000 c3         1 MM3       0.068100
     15 S15          2.5580    -0.9330    -0.1470 ss         1 MM3      -0.343200
     16 C16          2.4080    -2.6530    -0.7010 c3         1 MM3       0.021700
     17 C17          1.0100    -3.2430    -0.6590 c3         1 MM3      -0.085400
     18 C18         -0.0090    -2.4650    -1.4730 c3         1 MM3       0.230800
     19 C19          2.3460     1.4790    -1.2300 c3         1 MM3      -0.090100
     20 C20          2.3400    -0.3740    -2.8700 c3         1 MM3      -0.090100
     21 C           -0.4290     0.5370    -2.6410 c          1 MM3       0.651100
     22 NA          -0.6110     1.8690    -2.7040 ns         1 MM3      -0.441400
     23 OA          -1.3340     2.3970    -3.7300 oh         1 MM3      -0.378100
     24 OB          -0.7440    -0.2310    -3.5290 o          1 MM3      -0.553100
     25 H21         -2.5260     1.5990     1.0270 ha         1 MM3       0.154500
     26 H31         -1.8910     2.7880     3.0760 ha         1 MM3       0.146500
     27 H51          0.8280    -0.3960     4.0710 ha         1 MM3       0.146500
     28 H61          0.2100    -1.5600     2.0360 ha         1 MM3       0.154500
     29 H81          0.7760     2.2340     6.5470 h1         1 MM3       0.047033
     30 H82          0.4040     0.5430     6.1700 h1         1 MM3       0.047033
     31 H83          1.7080     1.3860     5.3010 h1         1 MM3       0.047033
     32 H131         0.0870     0.8190    -0.5700 h1         1 MM3       0.068700
     33 H161         3.0680    -3.2060    -0.0290 h1         1 MM3       0.068700
     34 H162         2.8370    -2.7450    -1.7000 h1         1 MM3       0.068700
     35 H171         0.6630    -3.3340     0.3720 hc         1 MM3       0.058700
     36 H172         1.0640    -4.2590    -1.0610 hc         1 MM3       0.058700
     37 H181        -0.9250    -3.0460    -1.5680 h1         1 MM3       0.071200
     38 H182         0.3370    -2.3130    -2.4930 h1         1 MM3       0.071200
     39 H191         3.4280     1.5180    -1.3480 hc         1 MM3       0.050367
     40 H192         1.9150     2.1900    -1.9360 hc         1 MM3       0.050367
     41 H193         2.1010     1.8180    -0.2210 hc         1 MM3       0.050367
     42 H201         1.9670    -1.3370    -3.2070 hc         1 MM3       0.050367
     43 H202         2.0700     0.3650    -3.6260 hc         1 MM3       0.050367
     44 H203         3.4280    -0.4280    -2.8470 hc         1 MM3       0.050367
     45 HNA         -0.5720     2.4570    -1.8830 hn         1 MM3       0.332500
     46 HOA         -0.6890     2.7570    -4.3530 ho         1 MM3       0.404000
@<TRIPOS>BOND
     1     1     2 ar  
     2     1     6 ar  
     3     1     9 1   
     4     2     3 ar  
     5     2    25 1   
     6     3     4 ar  
     7     3    26 1   
     8     4     5 ar  
     9     4     7 1   
    10     5     6 ar  
    11     5    27 1   
    12     6    28 1   
    13     7     8 1   
    14     8    29 1   
    15     8    30 1   
    16     8    31 1   
    17     9    10 2   
    18     9    11 2   
    19     9    12 1   
    20    12    13 1   
    21    12    18 1   
    22    13    14 1   
    23    13    21 1   
    24    13    32 1   
    25    14    15 1   
    26    14    19 1   
    27    14    20 1   
    28    15    16 1   
    29    16    17 1   
    30    16    33 1   
    31    16    34 1   
    32    17    18 1   
    33    17    35 1   
    34    17    36 1   
    35    18    37 1   
    36    18    38 1   
    37    19    39 1   
    38    19    40 1   
    39    19    41 1   
    40    20    42 1   
    41    20    43 1   
    42    20    44 1   
    43    21    22 1   
    44    21    24 2   
    45    22    23 1   
    46    22    45 1   
    47    23    46 1   
@<TRIPOS>SUBSTRUCTURE
     1 MM3         1 TEMP              0 ****  ****    0 ROOT
