@<TRIPOS>MOLECULE
MM8
   56    59     1     0     0
SMALL
No Charge or Current Charge


@<TRIPOS>ATOM
      1 C01         50.3880     3.4600    44.8810 c3         1 MM8       0.154900
      2 C03         51.6920     3.6620    42.7760 ca         1 MM8       0.171100
      3 C04         52.8820     3.2800    43.4380 ca         1 MM8      -0.202000
      4 C05         54.1150     3.1930    42.7580 cp         1 MM8       0.028000
      5 C06         55.3540     2.7740    43.4780 cp         1 MM8      -0.104000
      6 C07         55.3490     1.5590    44.2050 ca         1 MM8       0.342900
      7 C09         57.5460     1.8060    44.8590 ca         1 MM8       0.342900
      8 C10         57.6890     3.0370    44.1720 cp         1 MM8      -0.075000
      9 C11         59.0060     3.7460    44.2090 cp         1 MM8      -0.083000
     10 C12         59.6740     4.1210    43.0200 ca         1 MM8      -0.062500
     11 C13         60.9170     4.7750    43.0670 ca         1 MM8      -0.170500
     12 C14         61.5320     5.0660    44.2980 ca         1 MM8       0.312000
     13 C16         62.9600     7.0330    43.6070 c6         1 MM8       0.201800
     14 C17         64.4580     7.3340    43.2590 c6         1 MM8       0.149300
     15 C19         65.2120     5.8860    45.0950 c6         1 MM8       0.149300
     16 C20         63.7280     5.5570    45.4760 c6         1 MM8       0.201800
     17 C21         60.8800     4.6820    45.4870 ca         1 MM8      -0.170500
     18 C22         59.6360     4.0290    45.4430 ca         1 MM8      -0.062500
     19 C23         56.5530     3.5440    43.4780 ca         1 MM8      -0.009300
     20 C24         56.5990     4.9160    42.7980 c3         1 MM8      -0.057800
     21 C25         54.1310     3.4790    41.3790 ca         1 MM8      -0.145000
     22 C26         52.9620     3.8590    40.7050 ca         1 MM8      -0.028000
     23 C27         51.7260     3.9600    41.3850 ca         1 MM8      -0.178600
     24 C28         50.5120     4.3790    40.5760 c          1 MM8       0.617700
     25 N08         56.4100     1.0770    44.8850 nb         1 MM8      -0.664000
     26 N15         62.7840     5.7240    44.3210 nh         1 MM8      -0.796400
     27 N18         65.3670     7.2160    44.4370 n7         1 MM8      -0.862400
     28 N29         49.3130     4.4890    41.1790 nt         1 MM8      -0.599000
     29 O02         50.4990     3.7460    43.4730 os         1 MM8      -0.377100
     30 O30         50.5760     4.6250    39.3830 o          1 MM8      -0.630100
     31 H012        49.3520     3.5920    45.2150 h1         1 MM8       0.047700
     32 H013        50.6830     2.4240    45.0940 h1         1 MM8       0.047700
     33 H011        51.0220     4.1360    45.4690 h1         1 MM8       0.047700
     34 H041        52.8790     3.0530    44.4990 ha         1 MM8       0.122000
     35 H071        54.4500     0.9450    44.2340 h4         1 MM8       0.021100
     36 H091        58.3900     1.3870    45.4070 h4         1 MM8       0.023100
     37 H121        59.2290     3.8920    42.0550 ha         1 MM8       0.112500
     38 H131        61.4120     5.0410    42.1380 ha         1 MM8       0.114500
     39 H161        62.3810     7.0510    42.6730 h1         1 MM8       0.045950
     40 H171        64.7850     6.6270    42.4820 h1         1 MM8       0.040700
     41 H172        64.5360     8.3450    42.8330 h1         1 MM8       0.040700
     42 H191        65.5790     5.1040    44.4120 h1         1 MM8       0.040700
     43 H192        65.8370     5.8470    45.9990 h1         1 MM8       0.040700
     44 H201        63.4240     6.2170    46.3020 h1         1 MM8       0.045950
     45 H202        63.6920     4.5240    45.8510 h1         1 MM8       0.045950
     46 H211        61.3250     4.8970    46.4530 ha         1 MM8       0.114500
     47 H221        59.1490     3.7480    46.3750 ha         1 MM8       0.112500
     48 H241        57.2900     5.5990    43.3060 hc         1 MM8       0.053033
     49 H243        56.9180     4.8290    41.7540 hc         1 MM8       0.053033
     50 H242        55.6210     5.4100    42.8110 hc         1 MM8       0.053033
     51 H251        55.0620     3.3980    40.8220 ha         1 MM8       0.125000
     52 H261        53.0230     4.0730    39.6390 ha         1 MM8       0.146000
     53 H181        66.3400     7.3260    44.1230 hn         1 MM8       0.414000
     54 H291        48.5070     4.7670    40.6410 hn         1 MM8       0.325500
     55 H292        49.2420     4.2880    42.1660 hn         1 MM8       0.325500
     56 H162        62.5760     7.8480    44.2370 h1         1 MM8       0.045950
@<TRIPOS>BOND
     1     1    29 1   
     2     1    31 1   
     3     1    32 1   
     4     1    33 1   
     5     2     3 ar  
     6     2    23 ar  
     7     2    29 1   
     8     3     4 ar  
     9     3    34 1   
    10     4     5 1   
    11     4    21 ar  
    12     5     6 ar  
    13     5    19 ar  
    14     6    25 ar  
    15     6    35 1   
    16     7     8 ar  
    17     7    25 ar  
    18     7    36 1   
    19     8     9 1   
    20     8    19 ar  
    21     9    10 ar  
    22     9    18 ar  
    23    10    11 ar  
    24    10    37 1   
    25    11    12 ar  
    26    11    38 1   
    27    12    17 ar  
    28    12    26 1   
    29    13    14 1   
    30    13    26 1   
    31    13    39 1   
    32    13    56 1   
    33    14    27 1   
    34    14    40 1   
    35    14    41 1   
    36    15    16 1   
    37    15    27 1   
    38    15    42 1   
    39    15    43 1   
    40    16    26 1   
    41    16    44 1   
    42    16    45 1   
    43    17    18 ar  
    44    17    46 1   
    45    18    47 1   
    46    19    20 1   
    47    20    48 1   
    48    20    49 1   
    49    20    50 1   
    50    21    22 ar  
    51    21    51 1   
    52    22    23 ar  
    53    22    52 1   
    54    23    24 1   
    55    24    28 1   
    56    24    30 2   
    57    27    53 1   
    58    28    54 1   
    59    28    55 1   
@<TRIPOS>SUBSTRUCTURE
     1 MM8         1 TEMP              0 ****  ****    0 ROOT
