@<TRIPOS>MOLECULE
MM8
   56    59     1     0     0
SMALL
abcg2


@<TRIPOS>ATOM
      1 C01         50.5570     3.3760    44.9390 c3         1 MM8       0.154900
      2 C03         51.7390     3.6560    42.8550 ca         1 MM8       0.171100
      3 C04         52.9410     3.3070    43.4700 ca         1 MM8      -0.202000
      4 C05         54.1380     3.2760    42.7550 cp         1 MM8       0.028000
      5 C06         55.3880     2.8540    43.4310 cp         1 MM8      -0.104000
      6 C07         55.3880     1.6370    44.1140 ca         1 MM8       0.342900
      7 C09         57.5680     1.8610    44.7130 ca         1 MM8       0.342900
      8 C10         57.6940     3.0940    44.0670 cp         1 MM8      -0.075000
      9 C11         59.0020     3.7830    44.1130 cp         1 MM8      -0.083000
     10 C12         59.6380     4.2470    42.9550 ca         1 MM8      -0.062500
     11 C13         60.8790     4.8530    42.9990 ca         1 MM8      -0.170500
     12 C14         61.5620     5.0360    44.2180 ca         1 MM8       0.312000
     13 C16         63.0810     6.7660    43.3760 c6         1 MM8       0.201800
     14 C17         64.5690     7.0320    43.2270 c6         1 MM8       0.149300
     15 C19         64.9900     6.0150    45.3480 c6         1 MM8       0.149300
     16 C20         63.5080     5.7260    45.5360 c6         1 MM8       0.201800
     17 C21         60.9200     4.5780    45.3820 ca         1 MM8      -0.170500
     18 C22         59.6790     3.9580    45.3200 ca         1 MM8      -0.062500
     19 C23         56.5640     3.6240    43.4170 ca         1 MM8      -0.009300
     20 C24         56.5890     4.9970    42.8040 c3         1 MM8      -0.057800
     21 C25         54.1210     3.6000    41.3970 ca         1 MM8      -0.145000
     22 C26         52.9280     3.9400    40.7870 ca         1 MM8      -0.028000
     23 C27         51.7170     3.9800    41.4810 ca         1 MM8      -0.178600
     24 C28         50.5060     4.3640    40.6770 c          1 MM8       0.617700
     25 N08         56.4470     1.1420    44.7520 nb         1 MM8      -0.664000
     26 N15         62.8340     5.6110    44.2460 nh         1 MM8      -0.796400
     27 N18         65.1680     7.2220    44.5460 n7         1 MM8      -0.862400
     28 N29         49.3130     4.4060    41.2980 nt         1 MM8      -0.599000
     29 O02         50.5700     3.6970    43.5440 os         1 MM8      -0.377100
     30 O30         50.6120     4.6300    39.4750 o          1 MM8      -0.630100
     31 H012        49.5230     3.4840    45.2520 h1         1 MM8       0.047700
     32 H013        50.8900     2.3500    45.1030 h1         1 MM8       0.047700
     33 H011        51.1890     4.0660    45.5010 h1         1 MM8       0.047700
     34 H041        52.9590     3.0660    44.5220 ha         1 MM8       0.122000
     35 H071        54.4850     1.0360    44.1310 h4         1 MM8       0.021100
     36 H091        58.4300     1.4390    45.2180 h4         1 MM8       0.023100
     37 H121        59.1630     4.1080    41.9920 ha         1 MM8       0.112500
     38 H131        61.3360     5.1600    42.0700 ha         1 MM8       0.114500
     39 H161        62.6590     6.5850    42.3920 h1         1 MM8       0.045950
     40 H171        65.0260     6.1900    42.6840 h1         1 MM8       0.040700
     41 H172        64.7110     7.9360    42.6320 h1         1 MM8       0.040700
     42 H191        65.4610     5.1370    44.8790 h1         1 MM8       0.040700
     43 H192        65.4480     6.1610    46.3280 h1         1 MM8       0.040700
     44 H201        63.0530     6.5190    46.1490 h1         1 MM8       0.045950
     45 H202        63.4080     4.7850    46.0740 h1         1 MM8       0.045950
     46 H211        61.3760     4.7140    46.3500 ha         1 MM8       0.114500
     47 H221        59.2160     3.6290    46.2430 ha         1 MM8       0.112500
     48 H241        57.2910     5.6380    43.3350 hc         1 MM8       0.053033
     49 H243        56.9050     4.9660    41.7590 hc         1 MM8       0.053033
     50 H242        55.6010     5.4530    42.8310 hc         1 MM8       0.053033
     51 H251        55.0350     3.5690    40.8200 ha         1 MM8       0.125000
     52 H261        52.9060     4.1820    39.7340 ha         1 MM8       0.146000
     53 H181        66.1550     7.4280    44.4490 hn         1 MM8       0.414000
     54 H291        48.5020     4.6620    40.7580 hn         1 MM8       0.325500
     55 H292        49.2250     4.1910    42.2780 hn         1 MM8       0.325500
     56 H162        62.5910     7.6580    43.7950 h1         1 MM8       0.045950
@<TRIPOS>BOND
     1     1    29 1   
     2     1    31 1   
     3     1    32 1   
     4     1    33 1   
     5     2     3 ar  
     6     2    23 ar  
     7     2    29 1   
     8     3     4 ar  
     9     3    34 1   
    10     4     5 1   
    11     4    21 ar  
    12     5     6 ar  
    13     5    19 ar  
    14     6    25 ar  
    15     6    35 1   
    16     7     8 ar  
    17     7    25 ar  
    18     7    36 1   
    19     8     9 1   
    20     8    19 ar  
    21     9    10 ar  
    22     9    18 ar  
    23    10    11 ar  
    24    10    37 1   
    25    11    12 ar  
    26    11    38 1   
    27    12    17 ar  
    28    12    26 1   
    29    13    14 1   
    30    13    26 1   
    31    13    39 1   
    32    13    56 1   
    33    14    27 1   
    34    14    40 1   
    35    14    41 1   
    36    15    16 1   
    37    15    27 1   
    38    15    42 1   
    39    15    43 1   
    40    16    26 1   
    41    16    44 1   
    42    16    45 1   
    43    17    18 ar  
    44    17    46 1   
    45    18    47 1   
    46    19    20 1   
    47    20    48 1   
    48    20    49 1   
    49    20    50 1   
    50    21    22 ar  
    51    21    51 1   
    52    22    23 ar  
    53    22    52 1   
    54    23    24 1   
    55    24    28 1   
    56    24    30 2   
    57    27    53 1   
    58    28    54 1   
    59    28    55 1   
@<TRIPOS>SUBSTRUCTURE
     1 MM8         1 TEMP              0 ****  ****    0 ROOT
