@<TRIPOS>MOLECULE
MM9
   69    71     1     0     0
SMALL
abcg2


@<TRIPOS>ATOM
      1 C1          -3.7810     1.9370     0.2280 c6         1 MM9      -0.090700
      2 C2          -3.1820     3.1270     0.9780 c6         1 MM9      -0.073400
      3 C3          -4.0890     4.3510     0.8770 c6         1 MM9      -0.073400
      4 C4          -4.3660     4.7150    -0.5780 c6         1 MM9      -0.075400
      5 C5          -4.9370     3.5260    -1.3420 c6         1 MM9      -0.073400
      6 C6          -4.0260     2.3050    -1.2360 c6         1 MM9      -0.073400
      7 N7          -3.4650    -0.5490    -0.2250 n7         1 MM9      -0.846400
      8 C8          -2.9640     0.6400     0.4380 c3         1 MM9       0.117500
      9 C9          -1.5180     0.8130     0.0000 c          1 MM9       0.632100
     10 O0          -1.1820     0.7880    -1.1780 o          1 MM9      -0.598100
     11 N11         -0.6190     1.0180     0.9650 nj         1 MM9      -0.406800
     12 C12          0.8130     1.1340     0.8160 cy         1 MM9       0.020700
     13 C13          1.4350    -0.0740     0.1370 c          1 MM9       0.600100
     14 O14          1.0140    -1.2000     0.3460 o          1 MM9      -0.580100
     15 N15          2.4900     0.2100    -0.6410 ns         1 MM9      -0.498900
     16 C16          3.2910    -0.7760    -1.3250 c3         1 MM9       0.142300
     17 C17          4.7340    -0.7570    -0.8870 ca         1 MM9      -0.094300
     18 C18          5.0800    -0.6650     0.4590 ca         1 MM9      -0.110500
     19 C19          6.4060    -0.6780     0.8520 ca         1 MM9      -0.078500
     20 C20          7.4280    -0.7940    -0.0910 ca         1 MM9      -0.143900
     21 C21          7.0830    -0.8840    -1.4370 ca         1 MM9      -0.078500
     22 C22          5.7510    -0.8600    -1.8270 ca         1 MM9      -0.110500
     23 C23          8.8470    -0.7920     0.3590 ce         1 MM9       0.660800
     24 N24          9.1360    -0.2240     1.4660 n2         1 MM9      -0.828100
     25 N25          9.7340    -1.3690    -0.5050 nv         1 MM9      -1.076200
     26 C26          0.9240     1.1110     2.3630 cy         1 MM9      -0.099400
     27 C27         -0.6050     0.9270     2.4200 cy         1 MM9       0.110000
     28 C28         -4.8180    -0.8910     0.1290 c3         1 MM9       0.092800
     29 C10         -6.8220    -4.0030    -0.6810 c3         1 MM9       0.090300
     30 C29         -5.2290    -2.2070    -0.5150 c          1 MM9       0.595100
     31 O30         -4.5170    -2.7520    -1.3470 o          1 MM9      -0.577100
     32 C30         -7.2070    -2.1770     0.9470 c3         1 MM9       0.090300
     33 N2          -6.4250    -2.7130    -0.1500 n          1 MM9      -0.414800
     34 H22          1.1320     2.0710     0.3530 h1         1 MM9       0.071700
     35 H1          -4.7610     1.7460     0.6850 hc         1 MM9       0.041700
     36 H21C        -3.0250     2.8690     2.0300 hc         1 MM9       0.046700
     37 H22C        -2.1990     3.3770     0.5640 hc         1 MM9       0.046700
     38 H61C        -3.0740     2.5250    -1.7280 hc         1 MM9       0.046700
     39 H62C        -4.4710     1.4660    -1.7790 hc         1 MM9       0.046700
     40 H8          -2.9870     0.4370     1.5150 h1         1 MM9       0.059700
     41 H31C        -5.0360     4.1360     1.3830 hc         1 MM9       0.037700
     42 H32C        -3.6380     5.1950     1.4030 hc         1 MM9       0.037700
     43 H41C        -5.0520     5.5650    -0.6310 hc         1 MM9       0.040200
     44 H42C        -3.4340     5.0370    -1.0560 hc         1 MM9       0.040200
     45 H51C        -5.9250     3.2760    -0.9390 hc         1 MM9       0.037700
     46 H52C        -5.0890     3.7880    -2.3920 hc         1 MM9       0.037700
     47 H7          -3.3660    -0.4640    -1.2280 hn         1 MM9       0.456000
     48 H281        -4.8800    -0.9790     1.2180 h1         1 MM9       0.042200
     49 H282        -5.5660    -0.1320    -0.1510 h1         1 MM9       0.042200
     50 H271        -1.1550     1.7240     2.9220 h1         1 MM9       0.056700
     51 H272        -0.9390    -0.0380     2.8040 h1         1 MM9       0.056700
     52 H261         1.5000     0.2840     2.7730 hc         1 MM9       0.068200
     53 H262         1.2820     2.0460     2.7860 hc         1 MM9       0.068200
     54 H15          2.7500     1.1760    -0.7650 hn         1 MM9       0.314500
     55 H161         2.8560    -1.7560    -1.1300 h1         1 MM9       0.070200
     56 H162         3.2310    -0.6140    -2.4030 h1         1 MM9       0.070200
     57 H18          4.3070    -0.5840     1.2140 ha         1 MM9       0.117000
     58 HA           5.5080    -0.9150    -2.8820 ha         1 MM9       0.117000
     59 H19          6.6580    -0.6050     1.9010 ha         1 MM9       0.127000
     60 H21          7.8490    -0.9440    -2.1990 ha         1 MM9       0.127000
     61 H24         10.1270    -0.3130     1.6770 hn         1 MM9       0.370400
     62 H251         9.4060    -2.1070    -1.1050 hn         1 MM9       0.461000
     63 H252        10.6750    -1.5090    -0.1730 hn         1 MM9       0.461000
     64 H101        -6.3250    -4.8300    -0.1680 h1         1 MM9       0.039533
     65 H102        -7.8960    -4.1220    -0.5530 h1         1 MM9       0.039533
     66 H103        -6.5980    -4.0730    -1.7420 h1         1 MM9       0.039533
     67 H301        -8.2480    -2.4620     0.8140 h1         1 MM9       0.039533
     68 H302        -6.8740    -2.5540     1.9170 h1         1 MM9       0.039533
     69 H303        -7.1750    -1.0910     0.9700 h1         1 MM9       0.039533
@<TRIPOS>BOND
     1     1     2 1   
     2     1     6 1   
     3     1     8 1   
     4     1    35 1   
     5     2     3 1   
     6     2    36 1   
     7     2    37 1   
     8     3     4 1   
     9     3    41 1   
    10     3    42 1   
    11     4     5 1   
    12     4    43 1   
    13     4    44 1   
    14     5     6 1   
    15     5    45 1   
    16     5    46 1   
    17     6    38 1   
    18     6    39 1   
    19     7     8 1   
    20     7    28 1   
    21     7    47 1   
    22     8     9 1   
    23     8    40 1   
    24     9    10 2   
    25     9    11 1   
    26    11    12 1   
    27    11    27 1   
    28    12    13 1   
    29    12    26 1   
    30    12    34 1   
    31    13    14 2   
    32    13    15 1   
    33    15    16 1   
    34    15    54 1   
    35    16    17 1   
    36    16    55 1   
    37    16    56 1   
    38    17    18 ar  
    39    17    22 ar  
    40    18    19 ar  
    41    18    57 1   
    42    19    20 ar  
    43    19    59 1   
    44    20    21 ar  
    45    20    23 1   
    46    21    22 ar  
    47    21    60 1   
    48    22    58 1   
    49    23    24 2   
    50    23    25 1   
    51    24    61 1   
    52    25    62 1   
    53    25    63 1   
    54    26    27 1   
    55    26    52 1   
    56    26    53 1   
    57    27    50 1   
    58    27    51 1   
    59    28    30 1   
    60    28    48 1   
    61    28    49 1   
    62    29    33 1   
    63    29    64 1   
    64    29    65 1   
    65    29    66 1   
    66    30    31 2   
    67    30    33 1   
    68    32    33 1   
    69    32    67 1   
    70    32    68 1   
    71    32    69 1   
@<TRIPOS>SUBSTRUCTURE
     1 MM9         1 TEMP              0 ****  ****    0 ROOT
