@<TRIPOS>MOLECULE
MM9
   69    71     1     0     0
SMALL
No Charge or Current Charge


@<TRIPOS>ATOM
      1 C1          -3.5470     2.0420     0.1080 c6         1 MM9      -0.090700
      2 C2          -2.9680     3.2910     0.8380 c6         1 MM9      -0.073400
      3 C3          -3.6570     4.5940     0.3660 c6         1 MM9      -0.073400
      4 C4          -3.5420     4.7640    -1.1680 c6         1 MM9      -0.075400
      5 C5          -4.1100     3.5290    -1.9090 c6         1 MM9      -0.073400
      6 C6          -3.4230     2.2230    -1.4370 c6         1 MM9      -0.073400
      7 N7          -3.5150    -0.5220     0.0010 n7         1 MM9      -0.846400
      8 C8          -2.9270     0.7000     0.6500 c3         1 MM9       0.117500
      9 C9          -1.3390     0.6910     0.6300 c          1 MM9       0.632100
     10 O0          -0.7980     0.5260    -0.4630 o          1 MM9      -0.598100
     11 N11         -0.7400     0.9870     1.9050 nj         1 MM9      -0.406800
     12 C12          0.6980     0.5530     1.7390 cy         1 MM9       0.020700
     13 C13          1.2220    -0.7880     1.0210 c          1 MM9       0.600100
     14 O14          0.6760    -1.8520     0.7440 o          1 MM9      -0.580100
     15 N15          2.5510    -0.6330     0.6890 ns         1 MM9      -0.498900
     16 C16          3.3650    -1.6490     0.0220 c3         1 MM9       0.142300
     17 C17          4.7910    -1.1610    -0.1760 ca         1 MM9      -0.094300
     18 C18          5.7610    -1.3770     0.8180 ca         1 MM9      -0.110500
     19 C19          7.0780    -0.9200     0.6390 ca         1 MM9      -0.078500
     20 C20          7.4590    -0.2480    -0.5450 ca         1 MM9      -0.143900
     21 C21          6.4680    -0.0130    -1.5290 ca         1 MM9      -0.078500
     22 C22          5.1510    -0.4700    -1.3470 ca         1 MM9      -0.110500
     23 C23          8.8610     0.2630    -0.7100 ce         1 MM9       0.660800
     24 N24          9.6730     0.3990     0.2560 n2         1 MM9      -0.828100
     25 N25          9.3150     0.4880    -1.9620 nv         1 MM9      -1.076200
     26 C26          0.4430    -0.2040     3.1150 cy         1 MM9      -0.099400
     27 C27         -1.0770    -0.2280     2.7070 cy         1 MM9       0.110000
     28 C28         -4.9930    -0.7480     0.1390 c3         1 MM9       0.092800
     29 C10         -7.4310    -3.6690    -0.8930 c3         1 MM9       0.090300
     30 C29         -5.5440    -2.0390    -0.5640 c          1 MM9       0.595100
     31 O30         -4.8550    -2.6890    -1.3460 o          1 MM9      -0.577100
     32 C30         -7.7640    -1.6290     0.5780 c3         1 MM9       0.090300
     33 N2          -6.8710    -2.4450    -0.2770 n          1 MM9      -0.414800
     34 H22          1.4260     1.3690     1.8040 h1         1 MM9       0.071700
     35 H1          -4.6160     2.0030     0.3560 hc         1 MM9       0.041700
     36 H21C        -3.0940     3.1830     1.9250 hc         1 MM9       0.046700
     37 H22C        -1.8870     3.3730     0.6570 hc         1 MM9       0.046700
     38 H61C        -2.3670     2.2460    -1.7350 hc         1 MM9       0.046700
     39 H62C        -3.8780     1.3730    -1.9630 hc         1 MM9       0.046700
     40 H8          -3.2170     0.6800     1.7090 h1         1 MM9       0.059700
     41 H31C        -4.7170     4.5810     0.6590 hc         1 MM9       0.037700
     42 H32C        -3.2050     5.4590     0.8710 hc         1 MM9       0.037700
     43 H41C        -4.0780     5.6690    -1.4850 hc         1 MM9       0.040200
     44 H42C        -2.4890     4.9110    -1.4460 hc         1 MM9       0.040200
     45 H51C        -5.1930     3.4610    -1.7370 hc         1 MM9       0.037700
     46 H52C        -3.9740     3.6510    -2.9920 hc         1 MM9       0.037700
     47 H7          -3.2620    -0.5220    -0.9980 hn         1 MM9       0.456000
     48 H281        -5.2550    -0.8120     1.2030 h1         1 MM9       0.042200
     49 H282        -5.5560     0.0930    -0.2870 h1         1 MM9       0.042200
     50 H271        -1.7690    -0.0350     3.5340 h1         1 MM9       0.056700
     51 H272        -1.3840    -1.1140     2.1350 h1         1 MM9       0.056700
     52 H261         0.9070    -1.1790     3.3120 hc         1 MM9       0.068200
     53 H262         0.6410     0.4230     3.9920 hc         1 MM9       0.068200
     54 H15          2.9890     0.2500     0.9220 hn         1 MM9       0.314500
     55 H161         3.3660    -2.5640     0.6290 h1         1 MM9       0.070200
     56 H162         2.9140    -1.8880    -0.9510 h1         1 MM9       0.070200
     57 H18          5.4950    -1.8980     1.7360 ha         1 MM9       0.117000
     58 HA           4.4060    -0.2800    -2.1170 ha         1 MM9       0.117000
     59 H19          7.8080    -1.0990     1.4260 ha         1 MM9       0.127000
     60 H21          6.7050     0.5370    -2.4380 ha         1 MM9       0.127000
     61 H24         10.4750     0.9430    -0.0800 hn         1 MM9       0.370400
     62 H251         8.7520     0.0770    -2.6980 hn         1 MM9       0.461000
     63 H252        10.3160     0.4090    -2.0960 hn         1 MM9       0.461000
     64 H101        -6.7310    -4.5040    -0.7650 h1         1 MM9       0.039533
     65 H102        -8.3850    -3.9390    -0.4240 h1         1 MM9       0.039533
     66 H103        -7.5960    -3.4990    -1.9650 h1         1 MM9       0.039533
     67 H301        -8.7880    -2.0240     0.5550 h1         1 MM9       0.039533
     68 H302        -7.4040    -1.6480     1.6150 h1         1 MM9       0.039533
     69 H303        -7.7850    -0.5930     0.2190 h1         1 MM9       0.039533
@<TRIPOS>BOND
     1     1     2 1   
     2     1     6 1   
     3     1     8 1   
     4     1    35 1   
     5     2     3 1   
     6     2    36 1   
     7     2    37 1   
     8     3     4 1   
     9     3    41 1   
    10     3    42 1   
    11     4     5 1   
    12     4    43 1   
    13     4    44 1   
    14     5     6 1   
    15     5    45 1   
    16     5    46 1   
    17     6    38 1   
    18     6    39 1   
    19     7     8 1   
    20     7    28 1   
    21     7    47 1   
    22     8     9 1   
    23     8    40 1   
    24     9    10 2   
    25     9    11 1   
    26    11    12 1   
    27    11    27 1   
    28    12    13 1   
    29    12    26 1   
    30    12    34 1   
    31    13    14 2   
    32    13    15 1   
    33    15    16 1   
    34    15    54 1   
    35    16    17 1   
    36    16    55 1   
    37    16    56 1   
    38    17    18 ar  
    39    17    22 ar  
    40    18    19 ar  
    41    18    57 1   
    42    19    20 ar  
    43    19    59 1   
    44    20    21 ar  
    45    20    23 1   
    46    21    22 ar  
    47    21    60 1   
    48    22    58 1   
    49    23    24 2   
    50    23    25 1   
    51    24    61 1   
    52    25    62 1   
    53    25    63 1   
    54    26    27 1   
    55    26    52 1   
    56    26    53 1   
    57    27    50 1   
    58    27    51 1   
    59    28    30 1   
    60    28    48 1   
    61    28    49 1   
    62    29    33 1   
    63    29    64 1   
    64    29    65 1   
    65    29    66 1   
    66    30    31 2   
    67    30    33 1   
    68    32    33 1   
    69    32    67 1   
    70    32    68 1   
    71    32    69 1   
@<TRIPOS>SUBSTRUCTURE
     1 MM9         1 TEMP              0 ****  ****    0 ROOT
