@<TRIPOS>MOLECULE
MMA
   27    27     1     0     0
SMALL
No Charge or Current Charge


@<TRIPOS>ATOM
      1 C1          28.0000   130.6640   -21.5430 c6         1 MMA       0.379300
      2 C2          27.1190   129.4950   -22.1090 c6         1 MMA       0.159300
      3 C3          26.2540   128.8970   -20.9590 c6         1 MMA       0.134300
      4 C4          27.1380   128.4910   -19.7390 c6         1 MMA       0.107300
      5 C5          27.9970   129.7170   -19.2870 c6         1 MMA       0.149300
      6 C6          28.9820   129.3850   -18.1160 c3         1 MMA       0.164600
      7 O1          27.1840   131.7860   -21.1440 os         1 MMA      -0.484000
      8 O2          27.9030   128.4300   -22.6980 oh         1 MMA      -0.713000
      9 O3          25.5150   127.7510   -21.4260 oh         1 MMA      -0.672000
     10 O4          26.2960   127.9860   -18.6750 oh         1 MMA      -0.732000
     11 O5          28.7810   130.2170   -20.4060 os         1 MMA      -0.451000
     12 O6          29.9590   128.3770   -18.4450 oh         1 MMA      -0.709000
     13 H1          28.6840   130.9880   -22.3430 h2         1 MMA       0.087700
     14 H2          26.4410   129.9190   -22.8640 h1         1 MMA       0.064700
     15 H3          25.5530   129.6780   -20.6230 h1         1 MMA       0.064700
     16 H4          27.8330   127.7030   -20.0700 h1         1 MMA       0.077700
     17 H5          27.3260   130.5160   -18.9380 h1         1 MMA       0.055700
     18 H61         29.4900   130.3180   -17.8360 h1         1 MMA       0.028200
     19 H62         28.3940   129.0710   -17.2430 h1         1 MMA       0.028200
     20 H71         27.1730   133.7840   -20.5310 h1         1 MMA       0.034033
     21 H72         28.5420   132.8270   -19.9280 h1         1 MMA       0.034033
     22 H73         28.4980   133.3450   -21.6310 h1         1 MMA       0.034033
     23 HO2         27.2990   127.6490   -22.6710 ho         1 MMA       0.525000
     24 HO3         25.1700   127.3250   -20.6070 ho         1 MMA       0.465000
     25 HO4         26.8770   127.4750   -18.0620 ho         1 MMA       0.512000
     26 HO6         30.6140   128.3600   -17.7090 ho         1 MMA       0.501000
     27 C7          27.8860   132.9910   -20.7920 c3         1 MMA       0.153900
@<TRIPOS>BOND
     1     1     2 1   
     2     1     7 1   
     3     1    11 1   
     4     1    13 1   
     5     2     3 1   
     6     2     8 1   
     7     2    14 1   
     8     3     4 1   
     9     3     9 1   
    10     3    15 1   
    11     4     5 1   
    12     4    10 1   
    13     4    16 1   
    14     5     6 1   
    15     5    11 1   
    16     5    17 1   
    17     6    12 1   
    18     6    18 1   
    19     6    19 1   
    20     7    27 1   
    21     8    23 1   
    22     9    24 1   
    23    10    25 1   
    24    12    26 1   
    25    20    27 1   
    26    21    27 1   
    27    22    27 1   
@<TRIPOS>SUBSTRUCTURE
     1 MMA         1 TEMP              0 ****  ****    0 ROOT
