@<TRIPOS>MOLECULE
MMA
   27    27     1     0     0
SMALL
abcg2


@<TRIPOS>ATOM
      1 C1          27.9880   130.6400   -21.4760 c6         1 MMA       0.379300
      2 C2          27.0960   129.5180   -22.0020 c6         1 MMA       0.159300
      3 C3          26.2740   128.9230   -20.8620 c6         1 MMA       0.134300
      4 C4          27.1900   128.5100   -19.7180 c6         1 MMA       0.107300
      5 C5          28.0180   129.7230   -19.2790 c6         1 MMA       0.149300
      6 C6          28.9980   129.4310   -18.1640 c3         1 MMA       0.164600
      7 O1          27.1640   131.7200   -21.1800 os         1 MMA      -0.484000
      8 O2          27.9490   128.5600   -22.5800 oh         1 MMA      -0.713000
      9 O3          25.5560   127.8310   -21.3860 oh         1 MMA      -0.672000
     10 O4          26.3680   128.0370   -18.6720 oh         1 MMA      -0.732000
     11 O5          28.7550   130.2270   -20.3840 os         1 MMA      -0.451000
     12 O6          29.8820   128.4090   -18.5560 oh         1 MMA      -0.709000
     13 H1          28.7220   130.9160   -22.2470 h2         1 MMA       0.087700
     14 H2          26.4150   129.9440   -22.7530 h1         1 MMA       0.064700
     15 H3          25.5870   129.6980   -20.4900 h1         1 MMA       0.064700
     16 H4          27.8620   127.7210   -20.0740 h1         1 MMA       0.077700
     17 H5          27.3310   130.4880   -18.8900 h1         1 MMA       0.055700
     18 H61         29.5300   130.3600   -17.9190 h1         1 MMA       0.028200
     19 H62         28.4210   129.1590   -17.2710 h1         1 MMA       0.028200
     20 H71         27.1190   133.7090   -20.8110 h1         1 MMA       0.034033
     21 H72         28.3380   132.8450   -19.8640 h1         1 MMA       0.034033
     22 H73         28.6120   133.1570   -21.5890 h1         1 MMA       0.034033
     23 HO2         27.4190   127.7830   -22.7880 ho         1 MMA       0.525000
     24 HO3         25.1660   127.3500   -20.6480 ho         1 MMA       0.465000
     25 HO4         26.8630   127.4010   -18.1480 ho         1 MMA       0.512000
     26 HO6         30.4310   128.1800   -17.8020 ho         1 MMA       0.501000
     27 C7          27.8520   132.9050   -20.8420 c3         1 MMA       0.153900
@<TRIPOS>BOND
     1     1     2 1   
     2     1     7 1   
     3     1    11 1   
     4     1    13 1   
     5     2     3 1   
     6     2     8 1   
     7     2    14 1   
     8     3     4 1   
     9     3     9 1   
    10     3    15 1   
    11     4     5 1   
    12     4    10 1   
    13     4    16 1   
    14     5     6 1   
    15     5    11 1   
    16     5    17 1   
    17     6    12 1   
    18     6    18 1   
    19     6    19 1   
    20     7    27 1   
    21     8    23 1   
    22     9    24 1   
    23    10    25 1   
    24    12    26 1   
    25    20    27 1   
    26    21    27 1   
    27    22    27 1   
@<TRIPOS>SUBSTRUCTURE
     1 MMA         1 TEMP              0 ****  ****    0 ROOT
