@<TRIPOS>MOLECULE
MMB
   59    61     1     0     0
SMALL
No Charge or Current Charge


@<TRIPOS>ATOM
      1 C1           0.8550     0.7810    -2.4290 c3         1 MMB      -0.012100
      2 C2          -0.2970    -0.2570    -2.2890 c3         1 MMB      -0.248000
      3 C4          -1.5170     0.0070    -3.1530 c2         1 MMB       0.458300
      4 C6          -0.7330    -0.4480    -0.8380 c          1 MMB       0.726000
      5 O2          -0.5950    -1.5550    -0.3410 o          1 MMB      -0.721000
      6 O3          -1.2150     0.5000    -0.2390 o          1 MMB      -0.721000
      7 C7           1.3020     0.9910    -3.8740 ca         1 MMB      -0.081300
      8 C8           1.8320    -0.0800    -4.6200 ca         1 MMB      -0.075500
      9 C9           2.2360     0.1160    -5.9520 ca         1 MMB      -0.171000
     10 C10          2.1210     1.3790    -6.5520 ca         1 MMB       0.112100
     11 C11          1.5990     2.4570    -5.8060 ca         1 MMB      -0.171000
     12 C12          1.1960     2.2610    -4.4740 ca         1 MMB      -0.075500
     13 O4           2.5290     1.5090    -7.8630 os         1 MMB      -0.343100
     14 C13          2.4320     2.7570    -8.5780 c3         1 MMB       0.148300
     15 C14          2.9200     2.5490    -9.9920 cc         1 MMB       0.240300
     16 C15          2.4080     1.7260   -10.9580 cd         1 MMB       0.131300
     17 O5           3.1320     1.8270   -12.1030 os         1 MMB      -0.264000
     18 C3           4.0810     2.7470   -11.7480 cd         1 MMB       0.490500
     19 N1           4.0020     3.2130   -10.5070 nc         1 MMB      -0.649000
     20 C16          6.0390     2.9590   -15.0060 ca         1 MMB      -0.121000
     21 C17          5.0770     2.5800   -14.0530 ca         1 MMB      -0.074500
     22 C18          5.0900     3.1410   -12.7550 ca         1 MMB      -0.125500
     23 C19          6.0880     4.0900   -12.4370 ca         1 MMB      -0.074500
     24 C20          7.0490     4.4670   -13.3920 ca         1 MMB      -0.121000
     25 C21          7.0250     3.9020   -14.6760 ca         1 MMB      -0.099000
     26 C26         -3.5340    -1.7110    -5.4850 c3         1 MMB       0.177600
     27 C28         -5.2640    -2.3550    -7.2750 c3         1 MMB      -0.086100
     28 C29         -4.7080    -1.2410    -6.3670 c3         1 MMB      -0.086400
     29 C32         -2.0330     1.4470    -3.1970 c3         1 MMB      -0.141400
     30 N4          -2.0180    -0.9580    -3.8630 n2         1 MMB      -0.383700
     31 O1          -3.1040    -0.5900    -4.6920 os         1 MMB      -0.337000
     32 C5           1.2310     0.7880   -10.9230 c3         1 MMB      -0.118400
     33 H11A         0.5560     1.7350    -1.9790 hc         1 MMB       0.056200
     34 H12A         1.7100     0.4350    -1.8340 hc         1 MMB       0.056200
     35 H2           0.1220    -1.2200    -2.6060 hc         1 MMB       0.056700
     36 H8           1.9320    -1.0650    -4.1700 ha         1 MMB       0.113500
     37 H9           2.6410    -0.7170    -6.5210 ha         1 MMB       0.107500
     38 H11          1.4990     3.4480    -6.2390 ha         1 MMB       0.107500
     39 H12          0.7940     3.1000    -3.9090 ha         1 MMB       0.113500
     40 H131         3.0390     3.5300    -8.0910 h1         1 MMB       0.044200
     41 H132         1.3910     3.1030    -8.6120 h1         1 MMB       0.044200
     42 H16          6.0190     2.5200   -16.0010 ha         1 MMB       0.113500
     43 H17          4.3220     1.8470   -14.3320 ha         1 MMB       0.132500
     44 H19          6.1230     4.5390   -11.4460 ha         1 MMB       0.132500
     45 H20          7.8120     5.1980   -13.1340 ha         1 MMB       0.113500
     46 H21          7.7690     4.1940   -15.4150 ha         1 MMB       0.110000
     47 H261        -3.8670    -2.5380    -4.8430 h1         1 MMB       0.025700
     48 H262        -2.7180    -2.0720    -6.1250 h1         1 MMB       0.025700
     49 H281        -5.6330    -3.1960    -6.6740 hc         1 MMB       0.025367
     50 H282        -6.0950    -1.9760    -7.8810 hc         1 MMB       0.025367
     51 H283        -4.4860    -2.7280    -7.9520 hc         1 MMB       0.025367
     52 H291        -5.5150    -0.8670    -5.7250 hc         1 MMB       0.043700
     53 H292        -4.3770    -0.4030    -6.9920 hc         1 MMB       0.043700
     54 H321        -1.6660     1.9610    -4.0920 hc         1 MMB       0.041367
     55 H322        -1.7230     2.0330    -2.3270 hc         1 MMB       0.041367
     56 H323        -3.1280     1.4820    -3.2190 hc         1 MMB       0.041367
     57 H51          1.4220    -0.0510   -10.2430 hc         1 MMB       0.058700
     58 H52          0.3290     1.3060   -10.5740 hc         1 MMB       0.058700
     59 H53          1.0190     0.3760   -11.9160 hc         1 MMB       0.058700
@<TRIPOS>BOND
     1     1     2 1   
     2     1     7 1   
     3     1    33 1   
     4     1    34 1   
     5     2     3 1   
     6     2     4 1   
     7     2    35 1   
     8     3    29 1   
     9     3    30 2   
    10     4     5 1   
    11     4     6 1   
    12     7     8 ar  
    13     7    12 ar  
    14     8     9 ar  
    15     8    36 1   
    16     9    10 ar  
    17     9    37 1   
    18    10    11 ar  
    19    10    13 1   
    20    11    12 ar  
    21    11    38 1   
    22    12    39 1   
    23    13    14 1   
    24    14    15 1   
    25    14    40 1   
    26    14    41 1   
    27    15    16 2   
    28    15    19 1   
    29    16    17 1   
    30    16    32 1   
    31    17    18 1   
    32    18    19 2   
    33    18    22 1   
    34    20    21 ar  
    35    20    25 ar  
    36    20    42 1   
    37    21    22 ar  
    38    21    43 1   
    39    22    23 ar  
    40    23    24 ar  
    41    23    44 1   
    42    24    25 ar  
    43    24    45 1   
    44    25    46 1   
    45    26    28 1   
    46    26    31 1   
    47    26    47 1   
    48    26    48 1   
    49    27    28 1   
    50    27    49 1   
    51    27    50 1   
    52    27    51 1   
    53    28    52 1   
    54    28    53 1   
    55    29    54 1   
    56    29    55 1   
    57    29    56 1   
    58    30    31 1   
    59    32    57 1   
    60    32    58 1   
    61    32    59 1   
@<TRIPOS>SUBSTRUCTURE
     1 MMB         1 TEMP              0 ****  ****    0 ROOT
