@<TRIPOS>MOLECULE
MMB
   59    61     1     0     0
SMALL
bcc


@<TRIPOS>ATOM
      1 C1           1.0330     0.8420    -2.5440 c3         1 MMB      -0.012100
      2 C2           0.0030    -0.2770    -2.3280 c3         1 MMB      -0.248000
      3 C4          -1.2700    -0.0160    -3.0730 c2         1 MMB       0.458300
      4 C6          -0.2870    -0.5420    -0.8290 c          1 MMB       0.936600
      5 O2           0.6720    -0.4390    -0.0420 o          1 MMB      -0.826300
      6 O3          -1.4560    -0.8680    -0.5460 o          1 MMB      -0.826300
      7 C7           1.3500     1.0670    -3.9960 ca         1 MMB      -0.081300
      8 C8           2.1670     0.1790    -4.6970 ca         1 MMB      -0.093500
      9 C9           2.4420     0.3540    -6.0400 ca         1 MMB      -0.189000
     10 C10          1.8960     1.4380    -6.7320 ca         1 MMB       0.112100
     11 C11          1.0780     2.3330    -6.0530 ca         1 MMB      -0.189000
     12 C12          0.8190     2.1370    -4.7000 ca         1 MMB      -0.093500
     13 O4           2.2170     1.5320    -8.0430 os         1 MMB      -0.319900
     14 C13          1.7340     2.6480    -8.7730 c3         1 MMB       0.125100
     15 C14          2.2940     2.5720   -10.1430 cc         1 MMB       0.240300
     16 C15          1.6690     2.2810   -11.3080 cd         1 MMB       0.175700
     17 O5           2.6120     2.3410   -12.2810 os         1 MMB      -0.352800
     18 C3           3.7620     2.6580   -11.6670 cd         1 MMB       0.534900
     19 N1           3.6290     2.8080   -10.3940 nc         1 MMB      -0.649000
     20 C16          6.1230     2.7790   -14.5820 ca         1 MMB      -0.139000
     21 C17          4.9530     2.6360   -13.8510 ca         1 MMB      -0.092500
     22 C18          4.9710     2.7970   -12.4660 ca         1 MMB      -0.125500
     23 C19          6.1740     3.1020   -11.8260 ca         1 MMB      -0.092500
     24 C20          7.3380     3.2430   -12.5620 ca         1 MMB      -0.139000
     25 C21          7.3170     3.0830   -13.9430 ca         1 MMB      -0.117000
     26 C26         -2.9800    -1.4600    -5.6740 c3         1 MMB       0.154400
     27 C28         -4.6090    -2.0940    -7.4660 c3         1 MMB      -0.086100
     28 C29         -4.3110    -1.1360    -6.3210 c3         1 MMB      -0.086400
     29 C32         -2.0790     1.1990    -2.7390 c3         1 MMB      -0.141400
     30 N4          -1.5720    -0.8500    -3.9840 n2         1 MMB      -0.482200
     31 O1          -2.7520    -0.5420    -4.6230 os         1 MMB      -0.215300
     32 C5           0.2850     1.9360   -11.6920 c3         1 MMB      -0.118400
     33 H11A         0.6770     1.7750    -2.0990 hc         1 MMB       0.056200
     34 H12A         1.9380     0.5680    -2.0000 hc         1 MMB       0.056200
     35 H2           0.4300    -1.2020    -2.7340 hc         1 MMB       0.056700
     36 H8           2.6040    -0.6680    -4.1810 ha         1 MMB       0.131500
     37 H9           3.0850    -0.3420    -6.5640 ha         1 MMB       0.125500
     38 H11          0.6330     3.1850    -6.5490 ha         1 MMB       0.125500
     39 H12          0.1850     2.8520    -4.1870 ha         1 MMB       0.131500
     40 H131         2.0480     3.5830    -8.2960 h1         1 MMB       0.044200
     41 H132         0.6390     2.6490    -8.8080 h1         1 MMB       0.044200
     42 H16          6.0990     2.6550   -15.6560 ha         1 MMB       0.131500
     43 H17          4.0320     2.4000   -14.3680 ha         1 MMB       0.150500
     44 H19          6.1940     3.2260   -10.7510 ha         1 MMB       0.150500
     45 H20          8.2660     3.4810   -12.0570 ha         1 MMB       0.131500
     46 H21          8.2270     3.1950   -14.5170 ha         1 MMB       0.128000
     47 H261        -2.9910    -2.4870    -5.2890 h1         1 MMB       0.025700
     48 H262        -2.1760    -1.3990    -6.4170 h1         1 MMB       0.025700
     49 H281        -4.6540    -3.1270    -7.1170 hc         1 MMB       0.025367
     50 H282        -5.5650    -1.8630    -7.9340 hc         1 MMB       0.025367
     51 H283        -3.8410    -2.0410    -8.2400 hc         1 MMB       0.025367
     52 H291        -5.1070    -1.1940    -5.5740 hc         1 MMB       0.043700
     53 H292        -4.2990    -0.1070    -6.6930 hc         1 MMB       0.043700
     54 H321        -2.1100     1.8880    -3.5860 hc         1 MMB       0.041367
     55 H322        -1.6620     1.7320    -1.8890 hc         1 MMB       0.041367
     56 H323        -3.1090     0.9380    -2.4980 hc         1 MMB       0.041367
     57 H51         -0.3620     1.9560   -10.8180 hc         1 MMB       0.058700
     58 H52         -0.1150     2.6400   -12.4230 hc         1 MMB       0.058700
     59 H53          0.2310     0.9360   -12.1260 hc         1 MMB       0.058700
@<TRIPOS>BOND
     1     1     2 1   
     2     1     7 1   
     3     1    33 1   
     4     1    34 1   
     5     2     3 1   
     6     2     4 1   
     7     2    35 1   
     8     3    29 1   
     9     3    30 2   
    10     4     5 1   
    11     4     6 1   
    12     7     8 ar  
    13     7    12 ar  
    14     8     9 ar  
    15     8    36 1   
    16     9    10 ar  
    17     9    37 1   
    18    10    11 ar  
    19    10    13 1   
    20    11    12 ar  
    21    11    38 1   
    22    12    39 1   
    23    13    14 1   
    24    14    15 1   
    25    14    40 1   
    26    14    41 1   
    27    15    16 2   
    28    15    19 1   
    29    16    17 1   
    30    16    32 1   
    31    17    18 1   
    32    18    19 2   
    33    18    22 1   
    34    20    21 ar  
    35    20    25 ar  
    36    20    42 1   
    37    21    22 ar  
    38    21    43 1   
    39    22    23 ar  
    40    23    24 ar  
    41    23    44 1   
    42    24    25 ar  
    43    24    45 1   
    44    25    46 1   
    45    26    28 1   
    46    26    31 1   
    47    26    47 1   
    48    26    48 1   
    49    27    28 1   
    50    27    49 1   
    51    27    50 1   
    52    27    51 1   
    53    28    52 1   
    54    28    53 1   
    55    29    54 1   
    56    29    55 1   
    57    29    56 1   
    58    30    31 1   
    59    32    57 1   
    60    32    58 1   
    61    32    59 1   
@<TRIPOS>SUBSTRUCTURE
     1 MMB         1 TEMP              0 ****  ****    0 ROOT
