@<TRIPOS>MOLECULE
MMD
   45    48     1     0     0
SMALL
No Charge or Current Charge


@<TRIPOS>ATOM
      1 C1          -0.0180    -3.6560    -0.2430 c6         1 MMD       0.184800
      2 C2           0.4790    -5.0560     0.2240 c6         1 MMD       0.140600
      3 O3           1.8300    -5.3020    -0.2240 os         1 MMD      -0.446000
      4 C4           2.7640    -4.3340     0.3030 c6         1 MMD       0.140600
      5 C5           2.3960    -2.8930    -0.1580 c6         1 MMD       0.184800
      6 N6           0.9480    -2.5440     0.0850 nh         1 MMD      -0.764300
      7 C7           0.5190    -1.1880     0.1280 ca         1 MMD       0.433900
      8 N8          -0.8200    -0.9610     0.1160 nb         1 MMD      -0.289000
      9 N9           1.4820    -0.2380     0.1720 nb         1 MMD      -0.289000
     10 C10          1.0260     1.0160     0.2190 ca         1 MMD       0.394900
     11 N11          1.7510     2.1790     0.1650 nh         1 MMD      -0.739200
     12 S12          3.3930     2.2300    -0.3510 s6         1 MMD       1.236100
     13 C13          3.3520     1.6070    -2.0220 c3         1 MMD      -0.369100
     14 O14          3.7780     3.6440    -0.3960 o          1 MMD      -0.521500
     15 O15          4.1450     1.2910     0.4880 o          1 MMD      -0.521500
     16 C16          0.9030     3.3980    -0.0010 c5         1 MMD       0.229800
     17 C17         -0.5770     2.8240     0.1520 c5         1 MMD      -0.009100
     18 C18         -0.2940     1.3330     0.2240 ca         1 MMD      -0.285300
     19 C19         -1.2630     0.3130     0.1620 cp         1 MMD       0.294500
     20 C20         -2.7350     0.5230     0.0750 cp         1 MMD      -0.344500
     21 C21         -3.5450    -0.2760    -0.7700 ca         1 MMD       0.190400
     22 N22         -4.8780    -0.1090    -0.8550 nb         1 MMD      -0.256500
     23 C23         -5.4000     0.8540    -0.0850 ca         1 MMD       0.396900
     24 N24         -6.7420     1.0230    -0.1660 nv         1 MMD      -1.064900
     25 N27         -4.7540     1.6620     0.7650 nb         1 MMD      -0.256500
     26 C28         -3.4200     1.4940     0.8450 ca         1 MMD       0.190400
     27 H1          -0.1930    -3.6890    -1.3280 h1         1 MMD       0.065950
     28 H1A         -0.9940    -3.4860     0.2350 h1         1 MMD       0.065950
     29 H2           0.4450    -5.1150     1.3210 h1         1 MMD       0.056950
     30 H2A         -0.1820    -5.8370    -0.1770 h1         1 MMD       0.056950
     31 H4           2.7560    -4.3850     1.4020 h1         1 MMD       0.056950
     32 H4A          3.7770    -4.5860    -0.0390 h1         1 MMD       0.056950
     33 H5           3.0650    -2.2040     0.3780 h1         1 MMD       0.065950
     34 H5A          2.6270    -2.7980    -1.2300 h1         1 MMD       0.065950
     35 H13          2.6720     2.2460    -2.5930 h1         1 MMD       0.106367
     36 H13A         4.3730     1.6590    -2.4140 h1         1 MMD       0.106367
     37 H13B         2.9940     0.5740    -1.9860 h1         1 MMD       0.106367
     38 H16          1.1190     4.1540     0.7660 h1         1 MMD       0.064200
     39 H16A         1.0420     3.8570    -0.9900 h1         1 MMD       0.064200
     40 H17         -1.0390     3.2100     1.0670 hc         1 MMD       0.060700
     41 H17A        -1.2130     3.1020    -0.6960 hc         1 MMD       0.060700
     42 H21         -3.1140    -1.0560    -1.3960 h4         1 MMD       0.031600
     43 HN24        -7.2940     0.2910    -0.6090 hn         1 MMD       0.507500
     44 HN2A        -7.2090     1.5670     0.5570 hn         1 MMD       0.507500
     45 H28         -2.9000     2.1280     1.5590 h4         1 MMD       0.031600
@<TRIPOS>BOND
     1     1     2 1   
     2     1     6 1   
     3     1    27 1   
     4     1    28 1   
     5     2     3 1   
     6     2    29 1   
     7     2    30 1   
     8     3     4 1   
     9     4     5 1   
    10     4    31 1   
    11     4    32 1   
    12     5     6 1   
    13     5    33 1   
    14     5    34 1   
    15     6     7 1   
    16     7     8 ar  
    17     7     9 ar  
    18     8    19 ar  
    19     9    10 ar  
    20    10    11 1   
    21    10    18 ar  
    22    11    12 1   
    23    11    16 1   
    24    12    13 1   
    25    12    14 2   
    26    12    15 2   
    27    13    35 1   
    28    13    36 1   
    29    13    37 1   
    30    16    17 1   
    31    16    38 1   
    32    16    39 1   
    33    17    18 1   
    34    17    40 1   
    35    17    41 1   
    36    18    19 ar  
    37    19    20 1   
    38    20    21 ar  
    39    20    26 ar  
    40    21    22 ar  
    41    21    42 1   
    42    22    23 ar  
    43    23    24 1   
    44    23    25 ar  
    45    24    43 1   
    46    24    44 1   
    47    25    26 ar  
    48    26    45 1   
@<TRIPOS>SUBSTRUCTURE
     1 MMD         1 TEMP              0 ****  ****    0 ROOT
