@<TRIPOS>MOLECULE
MMD
   45    48     1     0     0
SMALL
bcc


@<TRIPOS>ATOM
      1 C1          -0.0290    -3.5540    -0.4490 c6         1 MMD       0.184800
      2 C2           0.4480    -4.8130     0.2510 c6         1 MMD       0.117400
      3 O3           1.7800    -5.1290    -0.0850 os         1 MMD      -0.399600
      4 C4           2.6460    -4.0770     0.2730 c6         1 MMD       0.117400
      5 C5           2.2810    -2.7820    -0.4290 c6         1 MMD       0.184800
      6 N6           0.8880    -2.4630    -0.1790 nh         1 MMD      -0.764300
      7 C7           0.4570    -1.1800    -0.1020 ca         1 MMD       0.959900
      8 N8          -0.8510    -0.9590    -0.0720 nb         1 MMD      -0.815000
      9 N9           1.4060    -0.2270    -0.0480 nb         1 MMD      -0.815000
     10 C10          0.9390     0.9880     0.0560 ca         1 MMD       0.723200
     11 N11          1.7380     2.1150     0.0950 nh         1 MMD      -0.739200
     12 S12          3.3900     2.0900    -0.1130 s6         1 MMD       1.266900
     13 C13          3.6420     1.4740    -1.7580 c3         1 MMD      -0.258300
     14 O14          3.7990     3.4840    -0.0690 o          1 MMD      -0.592300
     15 O15          3.9560     1.1530     0.8370 o          1 MMD      -0.592300
     16 C16          0.9220     3.3230    -0.1220 c5         1 MMD       0.229800
     17 C17         -0.5070     2.8500     0.2050 c5         1 MMD      -0.009100
     18 C18         -0.4050     1.3560     0.1030 ca         1 MMD      -0.415900
     19 C19         -1.2970     0.3010     0.0390 cp         1 MMD       0.622800
     20 C20         -2.7530     0.4580     0.0580 cp         1 MMD      -0.475100
     21 C21         -3.5970    -0.5470    -0.4220 ca         1 MMD       0.518700
     22 N22         -4.9090    -0.4560    -0.4240 nb         1 MMD      -0.782500
     23 C23         -5.4350     0.6720     0.0780 ca         1 MMD       0.922900
     24 N24         -6.7660     0.7900     0.0620 nv         1 MMD      -0.954500
     25 N27         -4.7300     1.6910     0.5880 nb         1 MMD      -0.782500
     26 C28         -3.4180     1.5710     0.5690 ca         1 MMD       0.518700
     27 H1          -0.0990    -3.7280    -1.5300 h1         1 MMD       0.065950
     28 H1A         -1.0230    -3.2980    -0.0920 h1         1 MMD       0.065950
     29 H2           0.3470    -4.6840     1.3380 h1         1 MMD       0.056950
     30 H2A         -0.1770    -5.6560    -0.0480 h1         1 MMD       0.056950
     31 H4           2.6280    -3.9180     1.3610 h1         1 MMD       0.056950
     32 H4A          3.6580    -4.3710    -0.0070 h1         1 MMD       0.056950
     33 H5           2.9160    -1.9800    -0.0610 h1         1 MMD       0.065950
     34 H5A          2.4580    -2.8800    -1.5080 h1         1 MMD       0.065950
     35 H13          3.1230     2.1180    -2.4650 h1         1 MMD       0.106367
     36 H13A         4.7140     1.4980    -1.9500 h1         1 MMD       0.106367
     37 H13B         3.2740     0.4540    -1.8240 h1         1 MMD       0.106367
     38 H16          1.2480     4.1310     0.5250 h1         1 MMD       0.064200
     39 H16A         0.9990     3.6510    -1.1610 h1         1 MMD       0.064200
     40 H17         -0.7880     3.1660     1.2120 hc         1 MMD       0.060700
     41 H17A        -1.2260     3.2890    -0.4880 hc         1 MMD       0.060700
     42 H21         -3.1740    -1.4610    -0.8230 h4         1 MMD       0.031600
     43 HN24        -7.3400     0.0230    -0.2410 hn         1 MMD       0.452300
     44 HN2A        -7.2100     1.5830     0.4900 hn         1 MMD       0.452300
     45 H28         -2.8710     2.3960     1.0100 h4         1 MMD       0.031600
@<TRIPOS>BOND
     1     1     2 1   
     2     1     6 1   
     3     1    27 1   
     4     1    28 1   
     5     2     3 1   
     6     2    29 1   
     7     2    30 1   
     8     3     4 1   
     9     4     5 1   
    10     4    31 1   
    11     4    32 1   
    12     5     6 1   
    13     5    33 1   
    14     5    34 1   
    15     6     7 1   
    16     7     8 ar  
    17     7     9 ar  
    18     8    19 ar  
    19     9    10 ar  
    20    10    11 1   
    21    10    18 ar  
    22    11    12 1   
    23    11    16 1   
    24    12    13 1   
    25    12    14 2   
    26    12    15 2   
    27    13    35 1   
    28    13    36 1   
    29    13    37 1   
    30    16    17 1   
    31    16    38 1   
    32    16    39 1   
    33    17    18 1   
    34    17    40 1   
    35    17    41 1   
    36    18    19 ar  
    37    19    20 1   
    38    20    21 ar  
    39    20    26 ar  
    40    21    22 ar  
    41    21    42 1   
    42    22    23 ar  
    43    23    24 1   
    44    23    25 ar  
    45    24    43 1   
    46    24    44 1   
    47    25    26 ar  
    48    26    45 1   
@<TRIPOS>SUBSTRUCTURE
     1 MMD         1 TEMP              0 ****  ****    0 ROOT
