@<TRIPOS>MOLECULE
MME
   22    21     1     0     0
SMALL
No Charge or Current Charge


@<TRIPOS>ATOM
      1 N           33.1650    68.8250    31.9440 n7         1 MME      -0.825400
      2 CA          32.2170    67.6760    31.7310 c3         1 MME       0.028500
      3 C           32.1890    66.6000    32.8970 c          1 MME       0.721000
      4 O           33.0870    65.7670    32.9640 o          1 MME      -0.721500
      5 CB          32.5070    67.0090    30.3600 c3         1 MME      -0.067400
      6 CG          32.2170    67.9190    29.1460 c3         1 MME       0.080600
      7 SD          32.4430    67.0030    27.5500 ss         1 MME      -0.500000
      8 CE          34.2930    66.9450    27.4530 c3         1 MME       0.053900
      9 OXT         31.2480    66.6230    33.6810 o          1 MME      -0.721500
     10 CM          32.9340    69.6230    33.1630 c3         1 MME       0.158100
     11 H           33.0930    69.4580    31.1410 hn         1 MME       0.356000
     12 HA          31.1970    68.0830    31.6700 h1         1 MME       0.004700
     13 HB2         33.5490    66.6700    30.3310 hc         1 MME       0.060200
     14 HB3         31.8810    66.1120    30.2710 hc         1 MME       0.060200
     15 HG2         31.1790    68.2730    29.2000 h1         1 MME       0.053700
     16 HG3         32.8790    68.7940    29.1560 h1         1 MME       0.053700
     17 HE1         34.5990    66.4740    26.5090 h1         1 MME       0.053367
     18 HE2         34.7010    67.9630    27.4930 h1         1 MME       0.053367
     19 HE3         34.6970    66.3600    28.2880 h1         1 MME       0.053367
     20 HM1         33.6610    70.4430    33.2260 h1         1 MME       0.014700
     21 HM2         31.9260    70.0590    33.1560 h1         1 MME       0.014700
     22 HM3         33.0390    69.0040    34.0640 h1         1 MME       0.014700
@<TRIPOS>BOND
     1     1     2 1   
     2     1    10 1   
     3     1    11 1   
     4     2     3 1   
     5     2     5 1   
     6     2    12 1   
     7     3     4 1   
     8     3     9 1   
     9     5     6 1   
    10     5    13 1   
    11     5    14 1   
    12     6     7 1   
    13     6    15 1   
    14     6    16 1   
    15     7     8 1   
    16     8    17 1   
    17     8    18 1   
    18     8    19 1   
    19    10    20 1   
    20    10    21 1   
    21    10    22 1   
@<TRIPOS>SUBSTRUCTURE
     1 MME         1 TEMP              0 ****  ****    0 ROOT
