@<TRIPOS>MOLECULE
MME
   22    21     1     0     0
SMALL
bcc


@<TRIPOS>ATOM
      1 N           33.1950    68.8190    31.9690 n7         1 MME      -0.770200
      2 CA          32.2480    67.7460    31.7270 c3         1 MME       0.028500
      3 C           32.3230    66.6200    32.7950 c          1 MME       0.931600
      4 O           33.4250    66.4030    33.3330 o          1 MME      -0.826800
      5 CB          32.5050    67.0950    30.3630 c3         1 MME      -0.067400
      6 CG          32.2780    68.0220    29.1780 c3         1 MME       0.032700
      7 SD          32.4000    67.1950    27.5660 ss         1 MME      -0.404200
      8 CE          34.1640    66.8070    27.5170 c3         1 MME       0.006000
      9 OXT         31.2620    65.9890    32.9780 o          1 MME      -0.826800
     10 CM          32.8840    69.5890    33.1560 c3         1 MME       0.158100
     11 H           33.1820    69.4530    31.1810 hn         1 MME       0.300800
     12 HA          31.2090    68.1230    31.7230 h1         1 MME       0.004700
     13 HB2         33.5260    66.7050    30.3480 hc         1 MME       0.060200
     14 HB3         31.8340    66.2400    30.2620 hc         1 MME       0.060200
     15 HG2         31.2680    68.4380    29.2110 h1         1 MME       0.053700
     16 HG3         32.9710    68.8670    29.1710 h1         1 MME       0.053700
     17 HE1         34.3770    66.3820    26.5370 h1         1 MME       0.053367
     18 HE2         34.7660    67.7070    27.6420 h1         1 MME       0.053367
     19 HE3         34.4420    66.0790    28.2760 h1         1 MME       0.053367
     20 HM1         33.5520    70.4490    33.2230 h1         1 MME       0.014700
     21 HM2         31.8520    69.9680    33.1880 h1         1 MME       0.014700
     22 HM3         33.0400    68.9860    34.0500 h1         1 MME       0.014700
@<TRIPOS>BOND
     1     1     2 1   
     2     1    10 1   
     3     1    11 1   
     4     2     3 1   
     5     2     5 1   
     6     2    12 1   
     7     3     4 1   
     8     3     9 1   
     9     5     6 1   
    10     5    13 1   
    11     5    14 1   
    12     6     7 1   
    13     6    15 1   
    14     6    16 1   
    15     7     8 1   
    16     8    17 1   
    17     8    18 1   
    18     8    19 1   
    19    10    20 1   
    20    10    21 1   
    21    10    22 1   
@<TRIPOS>SUBSTRUCTURE
     1 MME         1 TEMP              0 ****  ****    0 ROOT
