@<TRIPOS>MOLECULE
MMF
   63    65     1     0     0
SMALL
No Charge or Current Charge


@<TRIPOS>ATOM
      1 O2B          3.1000     1.9600     2.5980 o          1 MMF      -0.850500
      2 PB           1.7370     1.5500     2.1440 p5         1 MMF       1.470800
      3 O1B          0.8090     1.2820     3.2830 o          1 MMF      -0.850500
      4 O3B          1.8270     0.2280     1.2330 os         1 MMF      -0.586400
      5 C1Q          2.9120     0.1620     0.3030 c6         1 MMF       0.408300
      6 O5Q          3.9480    -0.6910     0.8560 os         1 MMF      -0.476000
      7 C5Q          3.5520    -2.0720     1.0390 c6         1 MMF       0.144300
      8 C6Q          4.7100    -2.7850     1.7850 c3         1 MMF      -0.083100
      9 C4Q          3.2090    -2.7190    -0.3420 c6         1 MMF       0.125300
     10 O4Q          4.3650    -2.7490    -1.2120 oh         1 MMF      -0.718000
     11 C3Q          2.0470    -1.8850    -0.9840 c6         1 MMF       0.186500
     12 N3Q          1.5990    -2.3990    -2.3160 n7         1 MMF      -0.864400
     13 C2M          0.9530    -3.7250    -2.3360 c3         1 MMF       0.158100
     14 C2Q          2.4730    -0.3900    -1.1040 c6         1 MMF       0.162300
     15 O2Q          1.4130     0.3400    -1.7540 oh         1 MMF      -0.700000
     16 O3A          1.1400     2.4980     1.0370 os         1 MMF      -0.689800
     17 PA           0.5590     3.8640     1.5670 p5         1 MMF       1.458800
     18 O2A          0.5750     4.8800     0.4730 o          1 MMF      -0.857500
     19 O1A          1.2470     4.4160     2.7710 o          1 MMF      -0.857500
     20 O5          -0.9580     3.4270     1.9040 os         1 MMF      -0.562400
     21 C5          -1.9920     3.4060     0.9000 c3         1 MMF       0.238600
     22 C4          -1.7290     2.3340    -0.1970 c5         1 MMF       0.132300
     23 O4          -1.8680     1.0020     0.3420 os         1 MMF      -0.405000
     24 C1          -1.9440     0.1130    -0.7850 c5         1 MMF       0.347700
     25 C2          -2.4550     0.9540    -1.9980 c5         1 MMF      -0.154400
     26 C3          -2.7870     2.3170    -1.3360 c5         1 MMF       0.131300
     27 O3          -2.6510     3.4030    -2.2550 oh         1 MMF      -0.693000
     28 N1          -2.8800    -1.0280    -0.5970 n          1 MMF      -0.310000
     29 C9          -4.0660    -0.8880     0.1590 c          1 MMF       0.621000
     30 O2          -4.4700     0.1590     0.6360 o          1 MMF      -0.534000
     31 N3          -4.7990    -2.0210     0.3200 ns         1 MMF      -0.470500
     32 C8          -4.5570    -3.2630    -0.1690 c          1 MMF       0.597200
     33 O6          -5.3170    -4.1890     0.0670 o          1 MMF      -0.566000
     34 C7          -3.3310    -3.3630    -0.9880 cc         1 MMF      -0.304400
     35 C5M         -3.0310    -4.7230    -1.5750 c3         1 MMF      -0.006900
     36 C6          -2.5410    -2.2500    -1.1750 cd         1 MMF       0.026600
     37 H2           3.3270     1.1690     0.1370 h2         1 MMF       0.072700
     38 H3           2.6630    -2.1150     1.6880 h1         1 MMF       0.101700
     39 H4           4.8720    -2.3370     2.7720 hc         1 MMF       0.031700
     40 H5           4.4810    -3.8470     1.9390 hc         1 MMF       0.031700
     41 H6           5.6540    -2.7230     1.2300 hc         1 MMF       0.031700
     42 H7           2.8540    -3.7450    -0.1660 h1         1 MMF       0.010700
     43 H8           4.9630    -2.0370    -0.8910 ho         1 MMF       0.482000
     44 H9           1.1890    -1.9260    -0.2940 h1         1 MMF       0.085700
     45 H10          2.4400    -2.4660    -2.9060 hn         1 MMF       0.392000
     46 H12          0.5990    -3.9640    -3.3470 h1         1 MMF       0.021367
     47 H13          1.6580    -4.5090    -2.0290 h1         1 MMF       0.021367
     48 H14          0.0940    -3.7520    -1.6540 h1         1 MMF       0.021367
     49 H15          3.3590    -0.3450    -1.7530 h1         1 MMF       0.024700
     50 H16          1.0500    -0.3310    -2.3810 ho         1 MMF       0.491000
     51 H18         -2.9620     3.1970     1.3680 h1         1 MMF       0.031700
     52 H19         -2.0720     4.3900     0.4180 h1         1 MMF       0.031700
     53 H20         -0.7240     2.4600    -0.6200 h1         1 MMF       0.107700
     54 H21         -0.9540    -0.3090    -0.9900 h2         1 MMF       0.048700
     55 H22         -1.6620     1.0480    -2.7480 hc         1 MMF       0.050700
     56 H23         -3.3250     0.5160    -2.5030 hc         1 MMF       0.050700
     57 H24         -3.7990     2.3020    -0.9050 h1         1 MMF       0.062700
     58 H25         -3.3110     3.2590    -2.9720 ho         1 MMF       0.483000
     59 H26         -5.6390    -1.9220     0.8660 hn         1 MMF       0.334500
     60 H27         -2.8290    -5.4560    -0.7840 hc         1 MMF       0.035367
     61 H28         -3.8740    -5.0910    -2.1720 hc         1 MMF       0.035367
     62 H29         -2.1530    -4.6890    -2.2300 hc         1 MMF       0.035367
     63 H30         -1.6290    -2.2350    -1.7660 h4         1 MMF       0.202000
@<TRIPOS>BOND
     1     1     2 1   
     2     2     3 1   
     3     2     4 1   
     4     2    16 1   
     5     4     5 1   
     6     5     6 1   
     7     5    14 1   
     8     5    37 1   
     9     6     7 1   
    10     7     8 1   
    11     7     9 1   
    12     7    38 1   
    13     8    39 1   
    14     8    40 1   
    15     8    41 1   
    16     9    10 1   
    17     9    11 1   
    18     9    42 1   
    19    10    43 1   
    20    11    12 1   
    21    11    14 1   
    22    11    44 1   
    23    12    13 1   
    24    12    45 1   
    25    13    46 1   
    26    13    47 1   
    27    13    48 1   
    28    14    15 1   
    29    14    49 1   
    30    15    50 1   
    31    16    17 1   
    32    17    18 1   
    33    17    19 1   
    34    17    20 1   
    35    20    21 1   
    36    21    22 1   
    37    21    51 1   
    38    21    52 1   
    39    22    23 1   
    40    22    26 1   
    41    22    53 1   
    42    23    24 1   
    43    24    25 1   
    44    24    28 1   
    45    24    54 1   
    46    25    26 1   
    47    25    55 1   
    48    25    56 1   
    49    26    27 1   
    50    26    57 1   
    51    27    58 1   
    52    28    29 1   
    53    28    36 1   
    54    29    30 2   
    55    29    31 1   
    56    31    32 1   
    57    31    59 1   
    58    32    33 2   
    59    32    34 1   
    60    34    35 1   
    61    34    36 2   
    62    35    60 1   
    63    35    61 1   
    64    35    62 1   
    65    36    63 1   
@<TRIPOS>SUBSTRUCTURE
     1 MMF         1 TEMP              0 ****  ****    0 ROOT
