@<TRIPOS>MOLECULE
MMF
   63    65     1     0     0
SMALL
abcg2


@<TRIPOS>ATOM
      1 O2B          4.0270     2.7530     0.9240 o          1 MMF      -0.850500
      2 PB           2.8700     1.8150     0.7830 p5         1 MMF       1.470800
      3 O1B          2.1610     1.2770     1.9830 o          1 MMF      -0.850500
      4 O3B          3.3040     0.5720    -0.2200 os         1 MMF      -0.586400
      5 C1Q          4.5650    -0.0130    -0.0880 c6         1 MMF       0.408300
      6 O5Q          4.7710    -0.5500     1.1840 os         1 MMF      -0.476000
      7 C5Q          3.8890    -1.6080     1.5360 c6         1 MMF       0.144300
      8 C6Q          4.2150    -2.0030     2.9620 c3         1 MMF      -0.083100
      9 C4Q          4.0040    -2.7640     0.5460 c6         1 MMF       0.125300
     10 O4Q          5.2680    -3.3920     0.5900 oh         1 MMF      -0.718000
     11 C3Q          3.7660    -2.2620    -0.8790 c6         1 MMF       0.186500
     12 N3Q          3.9250    -3.3310    -1.8530 n7         1 MMF      -0.864400
     13 C2M          2.9120    -3.3480    -2.8890 c3         1 MMF       0.158100
     14 C2Q          4.7080    -1.0950    -1.1650 c6         1 MMF       0.162300
     15 O2Q          4.4360    -0.5860    -2.4450 oh         1 MMF      -0.700000
     16 O3A          1.7900     2.4270    -0.2990 os         1 MMF      -0.689800
     17 PA           0.4610     3.3160     0.0490 p5         1 MMF       1.458800
     18 O2A          0.0290     3.9550    -1.2350 o          1 MMF      -0.857500
     19 O1A          0.6770     4.1540     1.2690 o          1 MMF      -0.857500
     20 O5          -0.5350     2.0560     0.4010 os         1 MMF      -0.562400
     21 C5          -1.8750     2.3400     0.7440 c3         1 MMF       0.238600
     22 C4          -2.8110     2.2270    -0.4380 c5         1 MMF       0.132300
     23 O4          -2.7820     0.8990    -0.9390 os         1 MMF      -0.405000
     24 C1          -4.0400     0.5060    -1.4040 c5         1 MMF       0.347700
     25 C2          -5.0440     1.5880    -0.9980 c5         1 MMF      -0.154400
     26 C3          -4.2650     2.5190    -0.0680 c5         1 MMF       0.131300
     27 O3          -4.5160     3.8890    -0.2600 oh         1 MMF      -0.693000
     28 N1          -4.3240    -0.8490    -0.9300 n          1 MMF      -0.310000
     29 C9          -4.4580    -1.0940     0.4170 c          1 MMF       0.621000
     30 O2          -4.4020    -0.2300     1.2660 o          1 MMF      -0.534000
     31 N3          -4.6730    -2.4100     0.7360 ns         1 MMF      -0.470500
     32 C8          -4.7560    -3.4940    -0.1190 c          1 MMF       0.597200
     33 O6          -4.9530    -4.6140     0.3170 o          1 MMF      -0.566000
     34 C7          -4.5870    -3.1630    -1.5190 cc         1 MMF      -0.304400
     35 C5M         -4.6380    -4.2580    -2.5330 c3         1 MMF      -0.006900
     36 C6          -4.3760    -1.8750    -1.8380 cd         1 MMF       0.026600
     37 H2           5.3510     0.7440    -0.2100 h2         1 MMF       0.072700
     38 H3           2.8520    -1.2540     1.5110 h1         1 MMF       0.101700
     39 H4           4.0240    -1.1710     3.6390 hc         1 MMF       0.031700
     40 H5           3.5860    -2.8360     3.2790 hc         1 MMF       0.031700
     41 H6           5.2590    -2.2970     3.0800 hc         1 MMF       0.031700
     42 H7           3.2070    -3.4840     0.7840 h1         1 MMF       0.010700
     43 H8           5.3320    -3.8960     1.4060 ho         1 MMF       0.482000
     44 H9           2.7330    -1.8810    -0.8910 h1         1 MMF       0.085700
     45 H10          3.9190    -4.2240    -1.3790 hn         1 MMF       0.392000
     46 H12          3.0400    -4.2360    -3.5080 h1         1 MMF       0.021367
     47 H13          1.8810    -3.3560    -2.5050 h1         1 MMF       0.021367
     48 H14          3.0120    -2.4790    -3.5370 h1         1 MMF       0.021367
     49 H15          5.7400    -1.4680    -1.1060 h1         1 MMF       0.024700
     50 H16          5.1280     0.0410    -2.6770 ho         1 MMF       0.491000
     51 H18         -2.1820     1.6230     1.5120 h1         1 MMF       0.031700
     52 H19         -1.9880     3.3400     1.1780 h1         1 MMF       0.031700
     53 H20         -2.4970     2.9250    -1.2260 h1         1 MMF       0.107700
     54 H21         -4.0250     0.4090    -2.4920 h2         1 MMF       0.048700
     55 H22         -5.3380     2.1390    -1.8930 hc         1 MMF       0.050700
     56 H23         -5.9520     1.1850    -0.5510 hc         1 MMF       0.050700
     57 H24         -4.4460     2.2360     0.9730 h1         1 MMF       0.062700
     58 H25         -5.3470     4.1070     0.1710 ho         1 MMF       0.483000
     59 H26         -4.7770    -2.6010     1.7250 hn         1 MMF       0.334500
     60 H27         -3.8510    -4.9940    -2.3640 hc         1 MMF       0.035367
     61 H28         -5.5900    -4.7890    -2.4990 hc         1 MMF       0.035367
     62 H29         -4.5140    -3.8610    -3.5390 hc         1 MMF       0.035367
     63 H30         -4.2340    -1.5760    -2.8680 h4         1 MMF       0.202000
@<TRIPOS>BOND
     1     1     2 1   
     2     2     3 1   
     3     2     4 1   
     4     2    16 1   
     5     4     5 1   
     6     5     6 1   
     7     5    14 1   
     8     5    37 1   
     9     6     7 1   
    10     7     8 1   
    11     7     9 1   
    12     7    38 1   
    13     8    39 1   
    14     8    40 1   
    15     8    41 1   
    16     9    10 1   
    17     9    11 1   
    18     9    42 1   
    19    10    43 1   
    20    11    12 1   
    21    11    14 1   
    22    11    44 1   
    23    12    13 1   
    24    12    45 1   
    25    13    46 1   
    26    13    47 1   
    27    13    48 1   
    28    14    15 1   
    29    14    49 1   
    30    15    50 1   
    31    16    17 1   
    32    17    18 1   
    33    17    19 1   
    34    17    20 1   
    35    20    21 1   
    36    21    22 1   
    37    21    51 1   
    38    21    52 1   
    39    22    23 1   
    40    22    26 1   
    41    22    53 1   
    42    23    24 1   
    43    24    25 1   
    44    24    28 1   
    45    24    54 1   
    46    25    26 1   
    47    25    55 1   
    48    25    56 1   
    49    26    27 1   
    50    26    57 1   
    51    27    58 1   
    52    28    29 1   
    53    28    36 1   
    54    29    30 2   
    55    29    31 1   
    56    31    32 1   
    57    31    59 1   
    58    32    33 2   
    59    32    34 1   
    60    34    35 1   
    61    34    36 2   
    62    35    60 1   
    63    35    61 1   
    64    35    62 1   
    65    36    63 1   
@<TRIPOS>SUBSTRUCTURE
     1 MMF         1 TEMP              0 ****  ****    0 ROOT
