@<TRIPOS>MOLECULE
MMG
   37    40     1     0     0
SMALL
abcg2


@<TRIPOS>ATOM
      1 C4           4.8020    -0.9750    -0.6020 ca         1 MMG      -0.105000
      2 C5           3.1770    -2.0590     0.7900 ca         1 MMG      -0.105000
      3 C6          -1.8570    -0.2280    -0.7770 ca         1 MMG      -0.129000
      4 C7          -3.0740     1.2940     0.6130 ca         1 MMG      -0.129000
      5 C8          -2.9750    -1.0430    -0.8550 ca         1 MMG      -0.091500
      6 C10          1.3900     0.2510     0.0580 ca         1 MMG      -0.001000
      7 C13          3.5960    -0.9200     0.1000 cp         1 MMG      -0.009000
      8 C15         -4.1620    -0.7060    -0.2090 ca         1 MMG      -0.120600
      9 C17          0.6750     1.4440     0.0710 ca         1 MMG      -0.125800
     10 C20         -5.3860    -1.6070    -0.2930 c          1 MMG       0.711600
     11 C1           5.1360    -3.2610     0.0750 ca         1 MMG      -0.119000
     12 C2           5.5660    -2.1330    -0.6120 ca         1 MMG      -0.112000
     13 C3           3.9380    -3.2190     0.7760 ca         1 MMG      -0.112000
     14 C9          -4.1910     0.4810     0.5210 ca         1 MMG      -0.091500
     15 C11         -0.7170     3.1940     0.1280 cc         1 MMG      -0.172100
     16 C12          3.3950     1.5710     0.1870 ca         1 MMG       0.361900
     17 C14         -1.8830     0.9570    -0.0370 ca         1 MMG      -0.069800
     18 C16          2.7790     0.3080     0.1120 cp         1 MMG      -0.143000
     19 C18         -0.7090     1.8250     0.0480 cd         1 MMG      -0.025400
     20 C19          1.4300     2.6350     0.1620 ca         1 MMG       0.361500
     21 N21          0.5560     3.6760     0.1940 na         1 MMG      -0.329400
     22 N22          2.7480     2.7230     0.2170 nb         1 MMG      -0.698000
     23 O23         -5.2570    -2.6640    -0.9410 o          1 MMG      -0.719000
     24 O24         -6.4120    -1.2120     0.2940 o          1 MMG      -0.719000
     25 H4           5.1400    -0.1130    -1.1640 ha         1 MMG       0.116000
     26 H5           2.2560    -2.0340     1.3600 ha         1 MMG       0.116000
     27 H6          -0.9630    -0.5070    -1.3210 ha         1 MMG       0.086500
     28 H7          -3.1180     2.1940     1.2140 ha         1 MMG       0.086500
     29 H8          -2.9280    -1.9550    -1.4360 ha         1 MMG       0.127500
     30 H10          0.8850    -0.7050    -0.0070 ha         1 MMG       0.135000
     31 H1           5.7300    -4.1660     0.0620 ha         1 MMG       0.105000
     32 H2           6.4940    -2.1570    -1.1680 ha         1 MMG       0.107500
     33 H3           3.5970    -4.0890     1.3230 ha         1 MMG       0.107500
     34 H9          -5.0990     0.7660     1.0360 ha         1 MMG       0.127500
     35 H11         -1.5560     3.8720     0.1220 h4         1 MMG       0.217000
     36 H12          4.4760     1.6330     0.2480 h4         1 MMG       0.009100
     37 HN21         0.8090     4.6510     0.2370 hn         1 MMG       0.351000
@<TRIPOS>BOND
     1     1     7 ar  
     2     1    12 ar  
     3     1    25 1   
     4     2     7 ar  
     5     2    13 ar  
     6     2    26 1   
     7     3     5 ar  
     8     3    17 ar  
     9     3    27 1   
    10     4    14 ar  
    11     4    17 ar  
    12     4    28 1   
    13     5     8 ar  
    14     5    29 1   
    15     6     9 ar  
    16     6    18 ar  
    17     6    30 1   
    18     7    18 1   
    19     8    10 1   
    20     8    14 ar  
    21     9    19 1   
    22     9    20 ar  
    23    10    23 1   
    24    10    24 1   
    25    11    12 ar  
    26    11    13 ar  
    27    11    31 1   
    28    12    32 1   
    29    13    33 1   
    30    14    34 1   
    31    15    19 2   
    32    15    21 1   
    33    15    35 1   
    34    16    18 ar  
    35    16    22 ar  
    36    16    36 1   
    37    17    19 1   
    38    20    21 1   
    39    20    22 ar  
    40    21    37 1   
@<TRIPOS>SUBSTRUCTURE
     1 MMG         1 TEMP              0 ****  ****    0 ROOT
