@<TRIPOS>MOLECULE
MMG
   37    40     1     0     0
SMALL
No Charge or Current Charge


@<TRIPOS>ATOM
      1 C4           4.8650    -0.9920    -0.5480 ca         1 MMG      -0.105000
      2 C5           3.0960    -2.1230     0.6730 ca         1 MMG      -0.105000
      3 C6          -1.7780    -0.2620    -0.6960 ca         1 MMG      -0.129000
      4 C7          -3.0950     1.3710     0.5050 ca         1 MMG      -0.129000
      5 C8          -2.8890    -1.1220    -0.7480 ca         1 MMG      -0.091500
      6 C10          1.3710     0.3140     0.0240 ca         1 MMG      -0.001000
      7 C13          3.5880    -0.9380     0.0670 cp         1 MMG      -0.009000
      8 C15         -4.1210    -0.7520    -0.1630 ca         1 MMG      -0.120600
      9 C17          0.7070     1.5520     0.0290 ca         1 MMG      -0.125800
     10 C20         -5.3250    -1.6820    -0.2170 c          1 MMG       0.711600
     11 C1           5.1090    -3.3390     0.0480 ca         1 MMG      -0.119000
     12 C2           5.6170    -2.1800    -0.5580 ca         1 MMG      -0.112000
     13 C3           3.8490    -3.3100     0.6640 ca         1 MMG      -0.112000
     14 C9          -4.2080     0.5140     0.4590 ca         1 MMG      -0.091500
     15 C11         -0.8200     3.2890     0.1930 cc         1 MMG      -0.172100
     16 C12          3.4220     1.6020     0.1500 ca         1 MMG       0.361900
     17 C14         -1.8560     0.9880    -0.0490 ca         1 MMG      -0.069800
     18 C16          2.7890     0.3280     0.0760 cp         1 MMG      -0.143000
     19 C18         -0.7040     1.9190     0.0100 cd         1 MMG      -0.025400
     20 C19          1.4160     2.7280     0.1430 ca         1 MMG       0.361500
     21 N21          0.5080     3.7610     0.2280 na         1 MMG      -0.329400
     22 N22          2.7570     2.7840     0.1980 nb         1 MMG      -0.698000
     23 O23         -5.2030    -2.7670    -0.7680 o          1 MMG      -0.719000
     24 O24         -6.3740    -1.3130     0.2930 o          1 MMG      -0.719000
     25 H4           5.2730    -0.1100    -1.0340 ha         1 MMG       0.116000
     26 H5           2.1290    -2.1210     1.1700 ha         1 MMG       0.116000
     27 H6          -0.8770    -0.5620    -1.2180 ha         1 MMG       0.086500
     28 H7          -3.2010     2.3320     1.0020 ha         1 MMG       0.086500
     29 H8          -2.7920    -2.0770    -1.2610 ha         1 MMG       0.127500
     30 H10          0.8320    -0.6260     0.0010 ha         1 MMG       0.135000
     31 H1           5.6920    -4.2580     0.0400 ha         1 MMG       0.105000
     32 H2           6.5930    -2.2000    -1.0390 ha         1 MMG       0.107500
     33 H3           3.4550    -4.2070     1.1380 ha         1 MMG       0.107500
     34 H9          -5.1420     0.8390     0.9120 ha         1 MMG       0.127500
     35 H11         -1.6890     3.9360     0.2690 h4         1 MMG       0.217000
     36 H12          4.5070     1.6760     0.2070 h4         1 MMG       0.009100
     37 HN21         0.7850     4.7300     0.3280 hn         1 MMG       0.351000
@<TRIPOS>BOND
     1     1     7 ar  
     2     1    12 ar  
     3     1    25 1   
     4     2     7 ar  
     5     2    13 ar  
     6     2    26 1   
     7     3     5 ar  
     8     3    17 ar  
     9     3    27 1   
    10     4    14 ar  
    11     4    17 ar  
    12     4    28 1   
    13     5     8 ar  
    14     5    29 1   
    15     6     9 ar  
    16     6    18 ar  
    17     6    30 1   
    18     7    18 1   
    19     8    10 1   
    20     8    14 ar  
    21     9    19 1   
    22     9    20 ar  
    23    10    23 1   
    24    10    24 1   
    25    11    12 ar  
    26    11    13 ar  
    27    11    31 1   
    28    12    32 1   
    29    13    33 1   
    30    14    34 1   
    31    15    19 2   
    32    15    21 1   
    33    15    35 1   
    34    16    18 ar  
    35    16    22 ar  
    36    16    36 1   
    37    17    19 1   
    38    20    21 1   
    39    20    22 ar  
    40    21    37 1   
@<TRIPOS>SUBSTRUCTURE
     1 MMG         1 TEMP              0 ****  ****    0 ROOT
