@<TRIPOS>MOLECULE
MMH
   52    54     1     0     0
SMALL
No Charge or Current Charge


@<TRIPOS>ATOM
      1 CBC          3.6730    -4.1150    -3.0680 c3         1 MMH      -0.182100
      2 CBB          3.2710    -2.9790    -2.1320 c          1 MMH       0.610100
      3 OBD          2.1430    -2.5000    -2.1610 o          1 MMH      -0.585100
      4 NBA          4.2840    -2.5710    -1.2740 ns         1 MMH      -0.148000
      5 CAY          4.3460    -1.5610    -0.2760 ca         1 MMH       0.005000
      6 CAZ          3.3140    -0.6270    -0.0410 ca         1 MMH      -0.193000
      7 CAX          5.5110    -1.4950     0.5080 ca         1 MMH      -0.195000
      8 CAW          5.6420    -0.5260     1.5150 ca         1 MMH      -0.061000
      9 CAV          4.6080     0.3950     1.7440 ca         1 MMH      -0.146000
     10 CAS          3.4370     0.3560     0.9590 ca         1 MMH       0.000000
     11 NAR          2.3470     1.2500     1.1390 ns         1 MMH      -0.167000
     12 CAG          2.2110     2.4240     1.8660 c          1 MMH       0.661700
     13 OAQ          3.1490     2.9670     2.4340 o          1 MMH      -0.577100
     14 CAD          0.8410     2.9860     1.8540 cc         1 MMH      -0.358600
     15 CAE          0.4730     4.2860     2.2720 cc         1 MMH       0.343300
     16 CAF          1.4250     5.3200     2.8080 c3         1 MMH      -0.127400
     17 NAA         -0.8120     4.5520     2.1270 nd         1 MMH      -0.529800
     18 NAB         -1.3050     3.3610     1.5950 na         1 MMH      -0.019200
     19 CAC         -0.3170     2.3940     1.4440 cd         1 MMH       0.313000
     20 NAH         -0.5890     1.0970     1.0580 nu         1 MMH      -0.651300
     21 NAI         -1.7550     0.7260     0.4340 n2         1 MMH      -0.437400
     22 CAJ         -2.0020    -0.5230     0.1490 ce         1 MMH       0.417800
     23 CAL         -3.2600    -0.9470    -0.5400 ca         1 MMH      -0.181900
     24 CAK         -3.4650    -2.3140    -0.8150 ca         1 MMH      -0.041000
     25 CAP         -4.6380    -2.7410    -1.4610 ca         1 MMH      -0.179000
     26 CAO         -5.6200    -1.8140    -1.8420 ca         1 MMH       0.161100
     27 OAT         -6.7500    -2.2940    -2.4730 os         1 MMH      -0.338100
     28 CAU         -7.8140    -1.4270    -2.9030 c3         1 MMH       0.147900
     29 CAN         -5.4220    -0.4440    -1.5700 ca         1 MMH      -0.179000
     30 CAM         -4.2490    -0.0140    -0.9240 ca         1 MMH      -0.041000
     31 HBC          2.8580    -4.4240    -3.7330 hc         1 MMH       0.063700
     32 HBCA         4.5640    -3.8150    -3.6320 hc         1 MMH       0.063700
     33 HBCB         4.0480    -4.9540    -2.4710 hc         1 MMH       0.063700
     34 HNBA         5.1450    -3.0910    -1.3780 hn         1 MMH       0.149000
     35 HAZ          2.4070    -0.6430    -0.6380 ha         1 MMH       0.145000
     36 HAX          6.3200    -2.2030     0.3420 ha         1 MMH       0.109000
     37 HAW          6.5450    -0.4910     2.1210 ha         1 MMH       0.114000
     38 HAV          4.7330     1.1220     2.5410 ha         1 MMH       0.139000
     39 HNAR         1.5290     1.0050     0.5990 hn         1 MMH       0.151000
     40 HAF          2.2280     5.5210     2.0900 hc         1 MMH       0.056700
     41 HAFA         0.9120     6.2680     3.0060 hc         1 MMH       0.056700
     42 HAFB         1.8760     4.9840     3.7490 hc         1 MMH       0.056700
     43 HNAB        -2.2850     3.2200     1.3730 hn         1 MMH       0.389000
     44 HNAH         0.0920     0.4020     1.3940 hn         1 MMH       0.505000
     45 HAJ         -1.2920    -1.3140     0.4030 h4         1 MMH      -0.008200
     46 HAK         -2.7150    -3.0490    -0.5280 ha         1 MMH       0.119000
     47 HAP         -4.7870    -3.7970    -1.6690 ha         1 MMH       0.126500
     48 HAU         -8.6110    -2.0110    -3.3790 h1         1 MMH       0.044033
     49 HAUA        -8.2500    -0.8910    -2.0500 h1         1 MMH       0.044033
     50 HAUB        -7.4500    -0.6930    -3.6330 h1         1 MMH       0.044033
     51 HAN         -6.1620     0.3000    -1.8510 ha         1 MMH       0.126500
     52 HAM         -4.1150     1.0470    -0.7240 ha         1 MMH       0.119000
@<TRIPOS>BOND
     1     1     2 1   
     2     1    31 1   
     3     1    32 1   
     4     1    33 1   
     5     2     3 2   
     6     2     4 1   
     7     4     5 1   
     8     4    34 1   
     9     5     6 ar  
    10     5     7 ar  
    11     6    10 ar  
    12     6    35 1   
    13     7     8 ar  
    14     7    36 1   
    15     8     9 ar  
    16     8    37 1   
    17     9    10 ar  
    18     9    38 1   
    19    10    11 1   
    20    11    12 1   
    21    11    39 1   
    22    12    13 2   
    23    12    14 1   
    24    14    15 1   
    25    14    19 2   
    26    15    16 1   
    27    15    17 2   
    28    16    40 1   
    29    16    41 1   
    30    16    42 1   
    31    17    18 1   
    32    18    19 1   
    33    18    43 1   
    34    19    20 1   
    35    20    21 1   
    36    20    44 1   
    37    21    22 2   
    38    22    23 1   
    39    22    45 1   
    40    23    24 ar  
    41    23    30 ar  
    42    24    25 ar  
    43    24    46 1   
    44    25    26 ar  
    45    25    47 1   
    46    26    27 1   
    47    26    29 ar  
    48    27    28 1   
    49    28    48 1   
    50    28    49 1   
    51    28    50 1   
    52    29    30 ar  
    53    29    51 1   
    54    30    52 1   
@<TRIPOS>SUBSTRUCTURE
     1 MMH         1 TEMP              0 ****  ****    0 ROOT
