@<TRIPOS>MOLECULE
MMH
   52    54     1     0     0
SMALL
abcg2


@<TRIPOS>ATOM
      1 CBC          5.7560    -3.1720    -3.3770 c3         1 MMH      -0.182100
      2 CBB          4.9620    -2.2670    -2.4700 c          1 MMH       0.610100
      3 OBD          4.0260    -1.6030    -2.8780 o          1 MMH      -0.585100
      4 NBA          5.3710    -2.2830    -1.1740 ns         1 MMH      -0.148000
      5 CAY          4.8520    -1.6120    -0.0640 ca         1 MMH       0.005000
      6 CAZ          3.7950    -0.7070    -0.1230 ca         1 MMH      -0.193000
      7 CAX          5.4600    -1.8740     1.1660 ca         1 MMH      -0.195000
      8 CAW          4.9970    -1.2470     2.3080 ca         1 MMH      -0.061000
      9 CAV          3.9380    -0.3530     2.2670 ca         1 MMH      -0.146000
     10 CAS          3.3430    -0.0790     1.0380 ca         1 MMH       0.000000
     11 NAR          2.2480     0.7850     0.9080 ns         1 MMH      -0.167000
     12 CAG          2.0420     1.9400     1.6270 c          1 MMH       0.661700
     13 OAQ          2.8400     2.3560     2.4500 o          1 MMH      -0.577100
     14 CAD          0.7950     2.6300     1.3250 cc         1 MMH      -0.358600
     15 CAE          0.5220     4.0130     1.5160 cc         1 MMH       0.343300
     16 CAF          1.4420     5.0660     2.0240 c3         1 MMH      -0.127400
     17 NAA         -0.7000     4.3090     1.1490 nd         1 MMH      -0.529800
     18 NAB         -1.2480     3.1450     0.7420 na         1 MMH      -0.019200
     19 CAC         -0.4030     2.1150     0.8270 cd         1 MMH       0.313000
     20 NAH         -0.7570     0.8490     0.4750 nu         1 MMH      -0.651300
     21 NAI         -2.0320     0.6410     0.0980 n2         1 MMH      -0.437400
     22 CAJ         -2.4250    -0.5590    -0.0610 ce         1 MMH       0.417800
     23 CAL         -3.7850    -0.8690    -0.4790 ca         1 MMH      -0.181900
     24 CAK         -4.1530    -2.2050    -0.6640 ca         1 MMH      -0.041000
     25 CAP         -5.4310    -2.5480    -1.0560 ca         1 MMH      -0.179000
     26 CAO         -6.3880    -1.5540    -1.2730 ca         1 MMH       0.161100
     27 OAT         -7.6070    -1.9710    -1.6490 os         1 MMH      -0.338100
     28 CAU         -8.6230    -1.0080    -1.8570 c3         1 MMH       0.147900
     29 CAN         -6.0350    -0.2140    -1.0920 ca         1 MMH      -0.179000
     30 CAM         -4.7490     0.1140    -0.7010 ca         1 MMH      -0.041000
     31 HBC          5.9350    -2.6710    -4.3260 hc         1 MMH       0.063700
     32 HBCA         6.7120    -3.4810    -2.9580 hc         1 MMH       0.063700
     33 HBCB         5.1730    -4.0700    -3.5840 hc         1 MMH       0.063700
     34 HNBA         6.1590    -2.8780    -0.9700 hn         1 MMH       0.149000
     35 HAZ          3.3200    -0.4790    -1.0650 ha         1 MMH       0.145000
     36 HAX          6.2880    -2.5680     1.2270 ha         1 MMH       0.109000
     37 HAW          5.4680    -1.4640     3.2580 ha         1 MMH       0.114000
     38 HAV          3.5850     0.1040     3.1780 ha         1 MMH       0.139000
     39 HNAR         1.7700     0.7290     0.0210 hn         1 MMH       0.151000
     40 HAF          2.3590     5.1080     1.4360 hc         1 MMH       0.056700
     41 HAFA         0.9600     6.0410     1.9750 hc         1 MMH       0.056700
     42 HAFB         1.7330     4.8760     3.0570 hc         1 MMH       0.056700
     43 HNAB        -2.2070     3.1090     0.4330 hn         1 MMH       0.389000
     44 HNAH        -0.1980     0.0760     0.8180 hn         1 MMH       0.505000
     45 HAJ         -1.7570    -1.4070     0.1070 h4         1 MMH      -0.008200
     46 HAK         -3.4250    -2.9900    -0.4990 ha         1 MMH       0.119000
     47 HAP         -5.7000    -3.5870    -1.1940 ha         1 MMH       0.126500
     48 HAU         -9.5150    -1.5600    -2.1410 h1         1 MMH       0.044033
     49 HAUA        -8.8340    -0.4390    -0.9490 h1         1 MMH       0.044033
     50 HAUB        -8.3680    -0.3130    -2.6600 h1         1 MMH       0.044033
     51 HAN         -6.7500     0.5820    -1.2480 ha         1 MMH       0.126500
     52 HAM         -4.4950     1.1570    -0.5630 ha         1 MMH       0.119000
@<TRIPOS>BOND
     1     1     2 1   
     2     1    31 1   
     3     1    32 1   
     4     1    33 1   
     5     2     3 2   
     6     2     4 1   
     7     4     5 1   
     8     4    34 1   
     9     5     6 ar  
    10     5     7 ar  
    11     6    10 ar  
    12     6    35 1   
    13     7     8 ar  
    14     7    36 1   
    15     8     9 ar  
    16     8    37 1   
    17     9    10 ar  
    18     9    38 1   
    19    10    11 1   
    20    11    12 1   
    21    11    39 1   
    22    12    13 2   
    23    12    14 1   
    24    14    15 1   
    25    14    19 2   
    26    15    16 1   
    27    15    17 2   
    28    16    40 1   
    29    16    41 1   
    30    16    42 1   
    31    17    18 1   
    32    18    19 1   
    33    18    43 1   
    34    19    20 1   
    35    20    21 1   
    36    20    44 1   
    37    21    22 2   
    38    22    23 1   
    39    22    45 1   
    40    23    24 ar  
    41    23    30 ar  
    42    24    25 ar  
    43    24    46 1   
    44    25    26 ar  
    45    25    47 1   
    46    26    27 1   
    47    26    29 ar  
    48    27    28 1   
    49    28    48 1   
    50    28    49 1   
    51    28    50 1   
    52    29    30 ar  
    53    29    51 1   
    54    30    52 1   
@<TRIPOS>SUBSTRUCTURE
     1 MMH         1 TEMP              0 ****  ****    0 ROOT
