@<TRIPOS>MOLECULE
MMI
  114   115     1     0     0
SMALL
abcg2


@<TRIPOS>ATOM
      1 C11         -6.8980     0.5300    -0.2840 c3         1 MMI       0.059700
      2 C12         -7.7260    -0.2590     0.7420 c3         1 MMI      -0.062700
      3 C13         -8.3910     0.7190     1.7080 c3         1 MMI      -0.089100
      4 C14         -8.7790    -1.1130     0.0440 c3         1 MMI      -0.089100
      5 N1          -6.3180    -0.2400    -1.3690 ns         1 MMI      -0.493900
      6 C16         -5.6050    -1.3770    -1.2450 c          1 MMI       0.650100
      7 O12         -5.4900    -2.0210    -0.2200 o          1 MMI      -0.565000
      8 O13         -5.0630    -1.7190    -2.4120 os         1 MMI      -0.455100
      9 C17         -4.5780    -3.0540    -2.6090 c3         1 MMI       0.193600
     10 C15         -5.8300     1.4280     0.3440 c          1 MMI       0.581100
     11 O11         -5.8450     2.6350     0.1680 o          1 MMI      -0.595100
     12 N21         -4.8830     0.8130     1.0870 ns         1 MMI      -0.479900
     13 C21         -3.6960     1.5380     1.4570 c3         1 MMI       0.022700
     14 C22         -3.0560     0.9840     2.7380 c3         1 MMI      -0.169400
     15 C23         -2.3240    -0.3300     2.5660 c          1 MMI       0.605100
     16 O22         -1.2130    -0.3840     2.0410 o          1 MMI      -0.630100
     17 N22         -2.9620    -1.4090     3.0240 ns         1 MMI      -0.488900
     18 C29         -2.7320     1.6110     0.2580 c          1 MMI       0.591100
     19 O21         -2.9660     1.0170    -0.7790 o          1 MMI      -0.599100
     20 C28         -3.1900    -3.3650    -2.0550 c3         1 MMI      -0.101400
     21 C27         -3.1390    -3.9870    -0.6510 c3         1 MMI      -0.066400
     22 C26         -2.6080    -3.0700     0.4450 c3         1 MMI      -0.066400
     23 C25         -2.9810    -3.5820     1.8280 c3         1 MMI      -0.093400
     24 C24         -2.4280    -2.7560     2.9810 c3         1 MMI       0.101000
     25 N3          -1.6680     2.4000     0.4630 ns         1 MMI      -0.496900
     26 C31         -0.5770     2.6360    -0.4680 c3         1 MMI       0.091700
     27 C32          0.5350     1.5750    -0.3040 c3         1 MMI       0.155300
     28 O31          0.8140     1.3470     1.0560 oh         1 MMI      -0.683000
     29 C33         -0.0820     4.0640    -0.2220 c3         1 MMI      -0.084400
     30 C34          1.0660     4.5500    -1.1080 c3         1 MMI      -0.059700
     31 C35          0.7870     4.3460    -2.5920 c3         1 MMI      -0.090600
     32 C36          1.3580     6.0180    -0.8110 c3         1 MMI      -0.090600
     33 C37          0.2350     0.2870    -1.0700 c3         1 MMI      -0.103400
     34 C38          1.2820    -0.8240    -0.9030 c3         1 MMI      -0.131700
     35 C39          0.8310    -2.0910    -1.6200 c3         1 MMI      -0.079100
     36 C30          2.6420    -0.3810    -1.4190 c          1 MMI       0.602100
     37 O32          2.9490    -0.4730    -2.6000 o          1 MMI      -0.622100
     38 N4           3.4680     0.1210    -0.4820 ns         1 MMI      -0.492900
     39 C41          4.8290     0.5230    -0.7230 c3         1 MMI       0.034700
     40 C42          4.9980     2.0530    -0.8830 c3         1 MMI      -0.065700
     41 C45          5.6970     0.0110     0.4270 c          1 MMI       0.591100
     42 O4           5.2170    -0.3110     1.5040 o          1 MMI      -0.608100
     43 C44          4.3190     2.5520    -2.1520 c3         1 MMI      -0.091600
     44 C43          4.5120     2.8150     0.3440 c3         1 MMI      -0.091600
     45 N5           7.0100    -0.0070     0.1610 ns         1 MMI      -0.501900
     46 C51          8.0300    -0.3870     1.1170 c3         1 MMI       0.147300
     47 C52          8.5120    -1.8020     0.9220 ca         1 MMI      -0.117300
     48 C57          9.7720    -2.0530     0.3900 ca         1 MMI      -0.094500
     49 C56         10.2120    -3.3570     0.1930 ca         1 MMI      -0.114000
     50 C55          9.3920    -4.4250     0.5290 ca         1 MMI      -0.104000
     51 C54          8.1310    -4.1830     1.0630 ca         1 MMI      -0.114000
     52 C53          7.6950    -2.8810     1.2580 ca         1 MMI      -0.094500
     53 H11         -7.5890     1.2180    -0.7760 h1         1 MMI       0.081700
     54 H12         -7.0770    -0.9160     1.3210 hc         1 MMI       0.071700
     55 H131        -9.0370     1.4230     1.1790 hc         1 MMI       0.038700
     56 H132        -9.0100     0.1760     2.4230 hc         1 MMI       0.038700
     57 H133        -7.6670     1.2960     2.2840 hc         1 MMI       0.038700
     58 H141        -8.3370    -1.8620    -0.6120 hc         1 MMI       0.038700
     59 H142        -9.3850    -1.6400     0.7810 hc         1 MMI       0.038700
     60 H143        -9.4510    -0.4950    -0.5560 hc         1 MMI       0.038700
     61 HN1         -6.3060     0.2130    -2.2690 hn         1 MMI       0.336500
     62 H171        -4.5590    -3.1450    -3.6940 h1         1 MMI       0.053700
     63 H172        -5.3100    -3.7740    -2.2340 h1         1 MMI       0.053700
     64 H2          -4.8360    -0.1960     1.0450 hn         1 MMI       0.339500
     65 H21         -4.0010     2.5590     1.6940 h1         1 MMI       0.094700
     66 H221        -2.3340     1.7060     3.1190 hc         1 MMI       0.072200
     67 H222        -3.8400     0.9090     3.4930 hc         1 MMI       0.072200
     68 H22         -3.8540    -1.2820     3.4760 hn         1 MMI       0.315500
     69 H281        -2.5660    -2.4670    -2.1100 hc         1 MMI       0.055200
     70 H282        -2.7450    -4.0650    -2.7660 hc         1 MMI       0.055200
     71 H271        -2.5160    -4.8850    -0.6790 hc         1 MMI       0.038700
     72 H272        -4.1370    -4.3330    -0.3730 hc         1 MMI       0.038700
     73 H261        -2.9900    -2.0590     0.2970 hc         1 MMI       0.048700
     74 H262        -1.5190    -2.9930     0.3660 hc         1 MMI       0.048700
     75 H251        -2.6190    -4.6070     1.9530 hc         1 MMI       0.046200
     76 H252        -4.0710    -3.6310     1.9100 hc         1 MMI       0.046200
     77 H241        -1.3420    -2.6940     2.9190 h1         1 MMI       0.056200
     78 H242        -2.6720    -3.2350     3.9300 h1         1 MMI       0.056200
     79 HN3         -1.5890     2.8560     1.3590 hn         1 MMI       0.310500
     80 H1          -0.9840     2.5680    -1.4800 h1         1 MMI       0.079700
     81 H32          1.4510     2.0020    -0.7250 h1         1 MMI       0.071700
     82 H31          0.0790     0.8300     1.4310 ho         1 MMI       0.477000
     83 H331         0.2240     4.1570     0.8270 hc         1 MMI       0.045700
     84 H332        -0.9340     4.7400    -0.3510 hc         1 MMI       0.045700
     85 H34          1.9700     3.9900    -0.8480 hc         1 MMI       0.052700
     86 H351        -0.1350     4.8530    -2.8890 hc         1 MMI       0.034200
     87 H352         1.5980     4.7510    -3.2000 hc         1 MMI       0.034200
     88 H353         0.6820     3.2920    -2.8580 hc         1 MMI       0.034200
     89 H361         0.4980     6.6470    -1.0540 hc         1 MMI       0.034200
     90 H362         1.5950     6.1720     0.2430 hc         1 MMI       0.034200
     91 H363         2.2050     6.3750    -1.3990 hc         1 MMI       0.034200
     92 H371        -0.7280    -0.1230    -0.7610 hc         1 MMI       0.064200
     93 H372         0.1350     0.5320    -2.1320 hc         1 MMI       0.064200
     94 H38          1.3640    -1.0500     0.1630 hc         1 MMI       0.070700
     95 H391        -0.1160    -2.4310    -1.2010 hc         1 MMI       0.040700
     96 H392         0.6820    -1.9210    -2.6860 hc         1 MMI       0.040700
     97 H393         1.5530    -2.9000    -1.5050 hc         1 MMI       0.040700
     98 HN4          3.1450     0.1390     0.4730 hn         1 MMI       0.345500
     99 H41          5.1600     0.0480    -1.6500 h1         1 MMI       0.084700
    100 H42          6.0700     2.2390    -0.9970 hc         1 MMI       0.040700
    101 H441         3.2390     2.4080    -2.1220 hc         1 MMI       0.040200
    102 H442         4.5010     3.6200    -2.2800 hc         1 MMI       0.040200
    103 H443         4.6950     2.0370    -3.0370 hc         1 MMI       0.040200
    104 H431         5.0640     2.5470     1.2460 hc         1 MMI       0.040200
    105 H432         4.6340     3.8890     0.1950 hc         1 MMI       0.040200
    106 H433         3.4530     2.6310     0.5340 hc         1 MMI       0.040200
    107 HN5          7.3170     0.2060    -0.7750 hn         1 MMI       0.315500
    108 H511         8.8640     0.3080     1.0150 h1         1 MMI       0.062200
    109 H512         7.6250    -0.2540     2.1190 h1         1 MMI       0.062200
    110 H57         10.4190    -1.2240     0.1280 ha         1 MMI       0.118000
    111 H56         11.1950    -3.5380    -0.2230 ha         1 MMI       0.113000
    112 H55          9.7330    -5.4410     0.3780 ha         1 MMI       0.112000
    113 H54          7.4890    -5.0120     1.3310 ha         1 MMI       0.113000
    114 H53          6.7140    -2.6980     1.6800 ha         1 MMI       0.118000
@<TRIPOS>BOND
     1     1     2 1   
     2     1     5 1   
     3     1    10 1   
     4     1    53 1   
     5     2     3 1   
     6     2     4 1   
     7     2    54 1   
     8     3    55 1   
     9     3    56 1   
    10     3    57 1   
    11     4    58 1   
    12     4    59 1   
    13     4    60 1   
    14     5     6 1   
    15     5    61 1   
    16     6     7 2   
    17     6     8 1   
    18     8     9 1   
    19     9    20 1   
    20     9    62 1   
    21     9    63 1   
    22    10    11 2   
    23    10    12 1   
    24    12    13 1   
    25    12    64 1   
    26    13    14 1   
    27    13    18 1   
    28    13    65 1   
    29    14    15 1   
    30    14    66 1   
    31    14    67 1   
    32    15    16 2   
    33    15    17 1   
    34    17    24 1   
    35    17    68 1   
    36    18    19 2   
    37    18    25 1   
    38    20    21 1   
    39    20    69 1   
    40    20    70 1   
    41    21    22 1   
    42    21    71 1   
    43    21    72 1   
    44    22    23 1   
    45    22    73 1   
    46    22    74 1   
    47    23    24 1   
    48    23    75 1   
    49    23    76 1   
    50    24    77 1   
    51    24    78 1   
    52    25    26 1   
    53    25    79 1   
    54    26    27 1   
    55    26    29 1   
    56    26    80 1   
    57    27    28 1   
    58    27    33 1   
    59    27    81 1   
    60    28    82 1   
    61    29    30 1   
    62    29    83 1   
    63    29    84 1   
    64    30    31 1   
    65    30    32 1   
    66    30    85 1   
    67    31    86 1   
    68    31    87 1   
    69    31    88 1   
    70    32    89 1   
    71    32    90 1   
    72    32    91 1   
    73    33    34 1   
    74    33    92 1   
    75    33    93 1   
    76    34    35 1   
    77    34    36 1   
    78    34    94 1   
    79    35    95 1   
    80    35    96 1   
    81    35    97 1   
    82    36    37 2   
    83    36    38 1   
    84    38    39 1   
    85    38    98 1   
    86    39    40 1   
    87    39    41 1   
    88    39    99 1   
    89    40    43 1   
    90    40    44 1   
    91    40   100 1   
    92    41    42 2   
    93    41    45 1   
    94    43   101 1   
    95    43   102 1   
    96    43   103 1   
    97    44   104 1   
    98    44   105 1   
    99    44   106 1   
   100    45    46 1   
   101    45   107 1   
   102    46    47 1   
   103    46   108 1   
   104    46   109 1   
   105    47    48 ar  
   106    47    52 ar  
   107    48    49 ar  
   108    48   110 1   
   109    49    50 ar  
   110    49   111 1   
   111    50    51 ar  
   112    50   112 1   
   113    51    52 ar  
   114    51   113 1   
   115    52   114 1   
@<TRIPOS>SUBSTRUCTURE
     1 MMI         1 TEMP              0 ****  ****    0 ROOT
