@<TRIPOS>MOLECULE
MMI
  114   115     1     0     0
SMALL
No Charge or Current Charge


@<TRIPOS>ATOM
      1 C11         -7.2720     0.0200    -0.4040 c3         1 MMI       0.059700
      2 C12         -8.2590    -0.8700     0.4380 c3         1 MMI      -0.062700
      3 C13         -9.2150    -0.0510     1.3420 c3         1 MMI      -0.089100
      4 C14         -9.1000    -1.8130    -0.4650 c3         1 MMI      -0.089100
      5 N1          -6.4050    -0.7340    -1.3600 ns         1 MMI      -0.493900
      6 C16         -5.7610    -1.9270    -1.1500 c          1 MMI       0.650100
      7 O12         -5.8420    -2.6180    -0.1520 o          1 MMI      -0.565000
      8 O13         -4.9960    -2.1860    -2.2460 os         1 MMI      -0.455100
      9 C17         -4.2050    -3.3910    -2.2990 c3         1 MMI       0.193600
     10 C15         -6.4150     1.0460     0.4200 c          1 MMI       0.581100
     11 O11         -6.9080     1.9440     1.0900 o          1 MMI      -0.595100
     12 N21         -5.0440     0.9480     0.2740 ns         1 MMI      -0.479900
     13 C21         -4.0640     1.9530     0.7410 c3         1 MMI       0.022700
     14 C22         -3.7180     1.7930     2.2510 c3         1 MMI      -0.169400
     15 C23         -2.8620     0.5600     2.5320 c          1 MMI       0.605100
     16 O22         -1.6670     0.5330     2.2780 o          1 MMI      -0.630100
     17 N22         -3.5110    -0.4930     3.1320 ns         1 MMI      -0.488900
     18 C29         -2.8310     1.9790    -0.2170 c          1 MMI       0.591100
     19 O21         -2.8150     1.3750    -1.2820 o          1 MMI      -0.599100
     20 C28         -2.8550    -3.2040    -1.5510 c3         1 MMI      -0.101400
     21 C27         -2.8560    -3.6190    -0.0540 c3         1 MMI      -0.066400
     22 C26         -2.7900    -2.4380     0.9420 c3         1 MMI      -0.066400
     23 C25         -3.1370    -2.8600     2.3900 c3         1 MMI      -0.093400
     24 C24         -2.8810    -1.7750     3.4580 c3         1 MMI       0.101000
     25 N3          -1.7540     2.7230     0.2140 ns         1 MMI      -0.496900
     26 C31         -0.4660     2.8500    -0.4840 c3         1 MMI       0.091700
     27 C32          0.5390     1.7080    -0.1000 c3         1 MMI       0.155300
     28 O31          0.6320     1.5810     1.3280 oh         1 MMI      -0.683000
     29 C33          0.0790     4.2830    -0.2180 c3         1 MMI      -0.084400
     30 C34          1.3950     4.6840    -0.9460 c3         1 MMI      -0.059700
     31 C35          1.3180     4.5010    -2.4810 c3         1 MMI      -0.090600
     32 C36          1.8020     6.1310    -0.5870 c3         1 MMI      -0.090600
     33 C37          0.1840     0.3200    -0.7020 c3         1 MMI      -0.103400
     34 C38          1.2860    -0.7640    -0.5050 c3         1 MMI      -0.131700
     35 C39          0.8590    -2.1440    -1.0580 c3         1 MMI      -0.079100
     36 C30          2.6310    -0.3240    -1.1220 c          1 MMI       0.602100
     37 O32          2.7940    -0.1960    -2.3270 o          1 MMI      -0.622100
     38 N4           3.6390    -0.0940    -0.2150 ns         1 MMI      -0.492900
     39 C41          5.0200     0.3370    -0.5420 c3         1 MMI       0.034700
     40 C42          5.1650     1.8940    -0.5930 c3         1 MMI      -0.065700
     41 C45          6.0230    -0.3080     0.4640 c          1 MMI       0.591100
     42 O4           5.6680    -0.8640     1.4970 o          1 MMI      -0.608100
     43 C44          4.5140     2.5150    -1.8500 c3         1 MMI      -0.091600
     44 C43          4.6720     2.5920     0.6990 c3         1 MMI      -0.091600
     45 N5           7.3520    -0.2180     0.1070 ns         1 MMI      -0.501900
     46 C51          8.4620    -0.7800     0.8760 c3         1 MMI       0.147300
     47 C52          8.8560    -2.1520     0.3510 ca         1 MMI      -0.117300
     48 C57          9.8610    -2.2780    -0.6290 ca         1 MMI      -0.094500
     49 C56         10.2210    -3.5470    -1.1160 ca         1 MMI      -0.114000
     50 C55          9.5780    -4.6970    -0.6270 ca         1 MMI      -0.104000
     51 C54          8.5740    -4.5770     0.3490 ca         1 MMI      -0.114000
     52 C53          8.2140    -3.3090     0.8360 ca         1 MMI      -0.094500
     53 H11         -7.9060     0.6590    -1.0320 h1         1 MMI       0.081700
     54 H12         -7.6680    -1.4960     1.1160 hc         1 MMI       0.071700
     55 H131        -9.7460     0.7140     0.7620 hc         1 MMI       0.038700
     56 H132        -9.9630    -0.7030     1.8090 hc         1 MMI       0.038700
     57 H133        -8.6710     0.4410     2.1570 hc         1 MMI       0.038700
     58 H141        -8.4680    -2.4900    -1.0500 hc         1 MMI       0.038700
     59 H142        -9.7690    -2.4360     0.1410 hc         1 MMI       0.038700
     60 H143        -9.7150    -1.2330    -1.1640 hc         1 MMI       0.038700
     61 HN1         -6.2360    -0.3270    -2.2730 hn         1 MMI       0.336500
     62 H171        -3.9680    -3.6030    -3.3500 h1         1 MMI       0.053700
     63 H172        -4.7550    -4.2620    -1.9180 h1         1 MMI       0.053700
     64 H2          -4.7180     0.2240    -0.3570 hn         1 MMI       0.339500
     65 H21         -4.5270     2.9420     0.6240 h1         1 MMI       0.094700
     66 H221        -3.1680     2.6800     2.5850 hc         1 MMI       0.072200
     67 H222        -4.6590     1.7280     2.8110 hc         1 MMI       0.072200
     68 H22         -4.5000    -0.3770     3.3180 hn         1 MMI       0.315500
     69 H281        -2.4980    -2.1740    -1.6700 hc         1 MMI       0.055200
     70 H282        -2.1160    -3.8330    -2.0630 hc         1 MMI       0.055200
     71 H271        -1.9890    -4.2660     0.1320 hc         1 MMI       0.038700
     72 H272        -3.7360    -4.2370     0.1580 hc         1 MMI       0.038700
     73 H261        -3.4770    -1.6460     0.6210 hc         1 MMI       0.048700
     74 H262        -1.7830    -2.0070     0.9220 hc         1 MMI       0.048700
     75 H251        -2.5570    -3.7500     2.6580 hc         1 MMI       0.046200
     76 H252        -4.1940    -3.1500     2.4290 hc         1 MMI       0.046200
     77 H241        -1.7980    -1.6300     3.5730 h1         1 MMI       0.056200
     78 H242        -3.2690    -2.1210     4.4250 h1         1 MMI       0.056200
     79 HN3         -1.8500     3.1830     1.1100 hn         1 MMI       0.310500
     80 H1          -0.6630     2.7710    -1.5610 h1         1 MMI       0.079700
     81 H32          1.5160     1.9860    -0.5090 h1         1 MMI       0.071700
     82 H31         -0.2340     1.1960     1.6370 ho         1 MMI       0.477000
     83 H331         0.2290     4.4050     0.8620 hc         1 MMI       0.045700
     84 H332        -0.7000     5.0020    -0.5000 hc         1 MMI       0.045700
     85 H34          2.2010     4.0430    -0.5740 hc         1 MMI       0.052700
     86 H351         0.4880     5.0820    -2.9020 hc         1 MMI       0.034200
     87 H352         2.2470     4.8370    -2.9570 hc         1 MMI       0.034200
     88 H353         1.1750     3.4480    -2.7480 hc         1 MMI       0.034200
     89 H361         1.0500     6.8480    -0.9370 hc         1 MMI       0.034200
     90 H362         1.9080     6.2460     0.4990 hc         1 MMI       0.034200
     91 H363         2.7640     6.3890    -1.0470 hc         1 MMI       0.034200
     92 H371        -0.7520    -0.0420    -0.2620 hc         1 MMI       0.064200
     93 H372        -0.0030     0.4400    -1.7760 hc         1 MMI       0.064200
     94 H38          1.4340    -0.8820     0.5760 hc         1 MMI       0.070700
     95 H391        -0.0370    -2.5100    -0.5470 hc         1 MMI       0.040700
     96 H392         0.6410    -2.0870    -2.1320 hc         1 MMI       0.040700
     97 H393         1.6560    -2.8820    -0.9090 hc         1 MMI       0.040700
     98 HN4          3.4130    -0.2490     0.7620 hn         1 MMI       0.345500
     99 H41          5.2870    -0.0690    -1.5260 h1         1 MMI       0.084700
    100 H42          6.2350     2.1180    -0.6790 hc         1 MMI       0.040700
    101 H441         3.4280     2.3840    -1.8410 hc         1 MMI       0.040200
    102 H442         4.7230     3.5910    -1.9030 hc         1 MMI       0.040200
    103 H443         4.9080     2.0500    -2.7620 hc         1 MMI       0.040200
    104 H431         5.1920     2.1980     1.5810 hc         1 MMI       0.040200
    105 H432         4.8640     3.6710     0.6520 hc         1 MMI       0.040200
    106 H433         3.5950     2.4480     0.8440 hc         1 MMI       0.040200
    107 HN5          7.5630     0.2480    -0.7670 hn         1 MMI       0.315500
    108 H511         9.3190    -0.0970     0.8050 h1         1 MMI       0.062200
    109 H512         8.1850    -0.8490     1.9360 h1         1 MMI       0.062200
    110 H57         10.3620    -1.3930    -1.0150 ha         1 MMI       0.118000
    111 H56         10.9970    -3.6390    -1.8720 ha         1 MMI       0.113000
    112 H55          9.8570    -5.6790    -1.0040 ha         1 MMI       0.112000
    113 H54          8.0750    -5.4660     0.7280 ha         1 MMI       0.113000
    114 H53          7.4340    -3.2240     1.5900 ha         1 MMI       0.118000
@<TRIPOS>BOND
     1     1     2 1   
     2     1     5 1   
     3     1    10 1   
     4     1    53 1   
     5     2     3 1   
     6     2     4 1   
     7     2    54 1   
     8     3    55 1   
     9     3    56 1   
    10     3    57 1   
    11     4    58 1   
    12     4    59 1   
    13     4    60 1   
    14     5     6 1   
    15     5    61 1   
    16     6     7 2   
    17     6     8 1   
    18     8     9 1   
    19     9    20 1   
    20     9    62 1   
    21     9    63 1   
    22    10    11 2   
    23    10    12 1   
    24    12    13 1   
    25    12    64 1   
    26    13    14 1   
    27    13    18 1   
    28    13    65 1   
    29    14    15 1   
    30    14    66 1   
    31    14    67 1   
    32    15    16 2   
    33    15    17 1   
    34    17    24 1   
    35    17    68 1   
    36    18    19 2   
    37    18    25 1   
    38    20    21 1   
    39    20    69 1   
    40    20    70 1   
    41    21    22 1   
    42    21    71 1   
    43    21    72 1   
    44    22    23 1   
    45    22    73 1   
    46    22    74 1   
    47    23    24 1   
    48    23    75 1   
    49    23    76 1   
    50    24    77 1   
    51    24    78 1   
    52    25    26 1   
    53    25    79 1   
    54    26    27 1   
    55    26    29 1   
    56    26    80 1   
    57    27    28 1   
    58    27    33 1   
    59    27    81 1   
    60    28    82 1   
    61    29    30 1   
    62    29    83 1   
    63    29    84 1   
    64    30    31 1   
    65    30    32 1   
    66    30    85 1   
    67    31    86 1   
    68    31    87 1   
    69    31    88 1   
    70    32    89 1   
    71    32    90 1   
    72    32    91 1   
    73    33    34 1   
    74    33    92 1   
    75    33    93 1   
    76    34    35 1   
    77    34    36 1   
    78    34    94 1   
    79    35    95 1   
    80    35    96 1   
    81    35    97 1   
    82    36    37 2   
    83    36    38 1   
    84    38    39 1   
    85    38    98 1   
    86    39    40 1   
    87    39    41 1   
    88    39    99 1   
    89    40    43 1   
    90    40    44 1   
    91    40   100 1   
    92    41    42 2   
    93    41    45 1   
    94    43   101 1   
    95    43   102 1   
    96    43   103 1   
    97    44   104 1   
    98    44   105 1   
    99    44   106 1   
   100    45    46 1   
   101    45   107 1   
   102    46    47 1   
   103    46   108 1   
   104    46   109 1   
   105    47    48 ar  
   106    47    52 ar  
   107    48    49 ar  
   108    48   110 1   
   109    49    50 ar  
   110    49   111 1   
   111    50    51 ar  
   112    50   112 1   
   113    51    52 ar  
   114    51   113 1   
   115    52   114 1   
@<TRIPOS>SUBSTRUCTURE
     1 MMI         1 TEMP              0 ****  ****    0 ROOT
