@<TRIPOS>MOLECULE
MMJ
   29    30     1     0     0
SMALL
bcc


@<TRIPOS>ATOM
      1 C15         -2.0090     2.9560     0.5060 c3         1 MMJ      -0.118400
      2 C10         -1.3340     1.6400     0.3060 cc         1 MMJ       0.363600
      3 C9          -1.9450     0.4240     0.2130 cd         1 MMJ      -0.167700
      4 C12         -3.3830     0.0400     0.3030 c3         1 MMJ       0.235100
      5 N13         -3.6600    -1.0870    -0.5620 n7         1 MMJ      -0.812200
      6 C14         -5.0140    -1.5830    -0.4180 c3         1 MMJ       0.146100
      7 S8          -0.7580    -0.8060    -0.0040 ss         1 MMJ      -0.123300
      8 N11          0.0300     1.6040     0.2170 nc         1 MMJ      -0.652000
      9 C7           0.4820     0.3990     0.0590 cd         1 MMJ       0.477900
     10 C2           1.9020     0.0720    -0.0800 ca         1 MMJ      -0.132500
     11 C3           2.3450    -1.2500    -0.1410 ca         1 MMJ      -0.100500
     12 C4           3.6950    -1.5350    -0.2750 ca         1 MMJ      -0.134000
     13 C5           4.6230    -0.5050    -0.3470 ca         1 MMJ      -0.116000
     14 C6           4.1900     0.8140    -0.2840 ca         1 MMJ      -0.134000
     15 C1           2.8420     1.1030    -0.1520 ca         1 MMJ      -0.100500
     16 H1          -1.6400     3.6910    -0.2100 hc         1 MMJ       0.048033
     17 H2          -3.0880     2.8810     0.3890 hc         1 MMJ       0.048033
     18 H3          -1.8120     3.3490     1.5050 hc         1 MMJ       0.048033
     19 H4          -3.6150    -0.2610     1.3300 h1         1 MMJ       0.044700
     20 H5          -4.0090     0.9190     0.0970 h1         1 MMJ       0.044700
     21 H6          -3.5050    -0.8120    -1.5240 hn         1 MMJ       0.359800
     22 H8          -5.1540    -1.9870     0.5860 h1         1 MMJ       0.032033
     23 H9          -5.7900    -0.8230    -0.5800 h1         1 MMJ       0.032033
     24 H10         -5.1850    -2.3920    -1.1270 h1         1 MMJ       0.032033
     25 H11          1.6420    -2.0710    -0.0800 ha         1 MMJ       0.143500
     26 H12          4.0210    -2.5660    -0.3220 ha         1 MMJ       0.132500
     27 H13          5.6770    -0.7270    -0.4500 ha         1 MMJ       0.131000
     28 H14          4.9070     1.6230    -0.3390 ha         1 MMJ       0.132500
     29 H15          2.5100     2.1320    -0.1050 ha         1 MMJ       0.143500
@<TRIPOS>BOND
     1     1     2 1   
     2     1    16 1   
     3     1    17 1   
     4     1    18 1   
     5     2     3 2   
     6     2     8 1   
     7     3     4 1   
     8     3     7 1   
     9     4     5 1   
    10     4    19 1   
    11     4    20 1   
    12     5     6 1   
    13     5    21 1   
    14     6    22 1   
    15     6    23 1   
    16     6    24 1   
    17     7     9 1   
    18     8     9 2   
    19     9    10 1   
    20    10    11 ar  
    21    10    15 ar  
    22    11    12 ar  
    23    11    25 1   
    24    12    13 ar  
    25    12    26 1   
    26    13    14 ar  
    27    13    27 1   
    28    14    15 ar  
    29    14    28 1   
    30    15    29 1   
@<TRIPOS>SUBSTRUCTURE
     1 MMJ         1 TEMP              0 ****  ****    0 ROOT
