@<TRIPOS>MOLECULE
MMJ
   29    30     1     0     0
SMALL
No Charge or Current Charge


@<TRIPOS>ATOM
      1 C15         -2.1610     2.6550     0.1500 c3         1 MMJ      -0.118400
      2 C10         -1.3590     1.3850     0.2000 cc         1 MMJ       0.298300
      3 C9          -1.8630     0.1240     0.4090 cd         1 MMJ      -0.247300
      4 C12         -3.2890    -0.2790     0.6450 c3         1 MMJ       0.235100
      5 N13         -3.8980    -0.7350    -0.6130 n7         1 MMJ      -0.867400
      6 C14         -5.3130    -1.1390    -0.5130 c3         1 MMJ       0.146100
      7 S8          -0.5810    -1.0730     0.4040 ss         1 MMJ       0.021600
      8 N11         -0.0010     1.4630     0.0260 nc         1 MMJ      -0.652000
      9 C7           0.5450     0.2530     0.1030 cd         1 MMJ       0.477900
     10 C2           2.0070     0.0380    -0.0490 ca         1 MMJ      -0.132500
     11 C3           2.5670    -1.2600     0.0340 ca         1 MMJ      -0.082500
     12 C4           3.9520    -1.4550    -0.1110 ca         1 MMJ      -0.116000
     13 C5           4.8000    -0.3610    -0.3410 ca         1 MMJ      -0.098000
     14 C6           4.2610     0.9310    -0.4260 ca         1 MMJ      -0.116000
     15 C1           2.8770     1.1300    -0.2810 ca         1 MMJ      -0.082500
     16 H1          -1.5440     3.5110    -0.1490 hc         1 MMJ       0.048033
     17 H2          -2.9820     2.5670    -0.5700 hc         1 MMJ       0.048033
     18 H3          -2.5920     2.8770     1.1330 hc         1 MMJ       0.048033
     19 H4          -3.3120    -1.0800     1.3970 h1         1 MMJ       0.044700
     20 H5          -3.8430     0.5750     1.0580 h1         1 MMJ       0.044700
     21 H6          -3.8310     0.0360    -1.2880 hn         1 MMJ       0.415000
     22 H8          -5.4340    -1.9690     0.1970 h1         1 MMJ       0.032033
     23 H9          -5.9380    -0.3020    -0.1720 h1         1 MMJ       0.032033
     24 H10         -5.6900    -1.4700    -1.4890 h1         1 MMJ       0.032033
     25 H11          1.9410    -2.1310     0.2100 ha         1 MMJ       0.125500
     26 H12          4.3680    -2.4580    -0.0450 ha         1 MMJ       0.114500
     27 H13          5.8710    -0.5150    -0.4530 ha         1 MMJ       0.113000
     28 H14          4.9160     1.7810    -0.6040 ha         1 MMJ       0.114500
     29 H15          2.4860     2.1430    -0.3520 ha         1 MMJ       0.125500
@<TRIPOS>BOND
     1     1     2 1   
     2     1    16 1   
     3     1    17 1   
     4     1    18 1   
     5     2     3 2   
     6     2     8 1   
     7     3     4 1   
     8     3     7 1   
     9     4     5 1   
    10     4    19 1   
    11     4    20 1   
    12     5     6 1   
    13     5    21 1   
    14     6    22 1   
    15     6    23 1   
    16     6    24 1   
    17     7     9 1   
    18     8     9 2   
    19     9    10 1   
    20    10    11 ar  
    21    10    15 ar  
    22    11    12 ar  
    23    11    25 1   
    24    12    13 ar  
    25    12    26 1   
    26    13    14 ar  
    27    13    27 1   
    28    14    15 ar  
    29    14    28 1   
    30    15    29 1   
@<TRIPOS>SUBSTRUCTURE
     1 MMJ         1 TEMP              0 ****  ****    0 ROOT
