@<TRIPOS>MOLECULE
MML
   24    24     1     0     0
SMALL
No Charge or Current Charge


@<TRIPOS>ATOM
      1 C1           3.6860    -0.2410    -0.0110 c3         1 MML      -0.045800
      2 C2           2.1730    -0.0800    -0.0100 ca         1 MML      -0.078300
      3 C3           1.5960     1.2030    -0.0130 ca         1 MML      -0.110000
      4 C4           0.1980     1.3530    -0.0090 ca         1 MML      -0.104000
      5 C5          -0.6430     0.2220    -0.0000 ca         1 MML      -0.077300
      6 C6          -2.1640     0.3950     0.0040 c3         1 MML      -0.015400
      7 C7          -2.8060    -0.2020    -1.2680 c3         1 MML      -0.084100
      8 C8          -2.7960    -0.1850     1.2890 c3         1 MML      -0.084100
      9 C9          -0.0600    -1.0620     0.0050 ca         1 MML      -0.104000
     10 C10          1.3380    -1.2110     0.0010 ca         1 MML      -0.110000
     11 H1           4.0750    -0.2790     1.0130 hc         1 MML       0.040700
     12 H1A          3.9890    -1.1650    -0.5190 hc         1 MML       0.040700
     13 H1B          4.1770     0.5930    -0.5260 hc         1 MML       0.040700
     14 H3           2.2300     2.0870    -0.0170 ha         1 MML       0.109000
     15 H4          -0.2290     2.3530    -0.0110 ha         1 MML       0.109500
     16 H6          -2.3970     1.4670    -0.0020 hc         1 MML       0.047700
     17 H7          -2.6630    -1.2880    -1.3120 hc         1 MML       0.034200
     18 H7A         -3.8830     0.0020    -1.2890 hc         1 MML       0.034200
     19 H7B         -2.3590     0.2400    -2.1660 hc         1 MML       0.034200
     20 H8          -3.8730     0.0190     1.3150 hc         1 MML       0.034200
     21 H8A         -2.6530    -1.2710     1.3460 hc         1 MML       0.034200
     22 H8B         -2.3430     0.2680     2.1780 hc         1 MML       0.034200
     23 H9          -0.6880    -1.9500     0.0130 ha         1 MML       0.109500
     24 H10          1.7710    -2.2090     0.0070 ha         1 MML       0.109000
@<TRIPOS>BOND
     1     1     2 1   
     2     1    11 1   
     3     1    12 1   
     4     1    13 1   
     5     2     3 ar  
     6     2    10 ar  
     7     3     4 ar  
     8     3    14 1   
     9     4     5 ar  
    10     4    15 1   
    11     5     6 1   
    12     5     9 ar  
    13     6     7 1   
    14     6     8 1   
    15     6    16 1   
    16     7    17 1   
    17     7    18 1   
    18     7    19 1   
    19     8    20 1   
    20     8    21 1   
    21     8    22 1   
    22     9    10 ar  
    23     9    23 1   
    24    10    24 1   
@<TRIPOS>SUBSTRUCTURE
     1 MML         1 TEMP              0 ****  ****    0 ROOT
