@<TRIPOS>MOLECULE
MML
   24    24     1     0     0
SMALL
bcc


@<TRIPOS>ATOM
      1 C1           3.6580    -0.2450     0.0090 c3         1 MML      -0.045800
      2 C2           2.1660    -0.0740    -0.0160 ca         1 MML      -0.078300
      3 C3           1.5800     1.1870    -0.0260 ca         1 MML      -0.128000
      4 C4           0.1980     1.3370    -0.0270 ca         1 MML      -0.122000
      5 C5          -0.6480     0.2330    -0.0200 ca         1 MML      -0.077300
      6 C6          -2.1500     0.4000    -0.0110 c3         1 MML      -0.015400
      7 C7          -2.8000    -0.2380    -1.2380 c3         1 MML      -0.084100
      8 C8          -2.7590    -0.1480     1.2800 c3         1 MML      -0.084100
      9 C9          -0.0590    -1.0320    -0.0140 ca         1 MML      -0.122000
     10 C10          1.3190    -1.1830    -0.0130 ca         1 MML      -0.128000
     11 H1           4.0040    -0.5340     1.0030 hc         1 MML       0.040700
     12 H1A          3.9830    -1.0240    -0.6810 hc         1 MML       0.040700
     13 H1B          4.1700     0.6780    -0.2600 hc         1 MML       0.040700
     14 H3           2.2110     2.0680    -0.0340 ha         1 MML       0.127000
     15 H4          -0.2260     2.3350    -0.0350 ha         1 MML       0.127500
     16 H6          -2.3570     1.4740    -0.0460 hc         1 MML       0.047700
     17 H7          -2.6510    -1.3190    -1.2540 hc         1 MML       0.034200
     18 H7A         -3.8760    -0.0570    -1.2410 hc         1 MML       0.034200
     19 H7B         -2.3880     0.1690    -2.1630 hc         1 MML       0.034200
     20 H8          -3.8370     0.0260     1.3040 hc         1 MML       0.034200
     21 H8A         -2.5990    -1.2240     1.3690 hc         1 MML       0.034200
     22 H8B         -2.3220     0.3270     2.1580 hc         1 MML       0.034200
     23 H9          -0.6840    -1.9180    -0.0130 ha         1 MML       0.127500
     24 H10          1.7430    -2.1800    -0.0110 ha         1 MML       0.127000
@<TRIPOS>BOND
     1     1     2 1   
     2     1    11 1   
     3     1    12 1   
     4     1    13 1   
     5     2     3 ar  
     6     2    10 ar  
     7     3     4 ar  
     8     3    14 1   
     9     4     5 ar  
    10     4    15 1   
    11     5     6 1   
    12     5     9 ar  
    13     6     7 1   
    14     6     8 1   
    15     6    16 1   
    16     7    17 1   
    17     7    18 1   
    18     7    19 1   
    19     8    20 1   
    20     8    21 1   
    21     8    22 1   
    22     9    10 ar  
    23     9    23 1   
    24    10    24 1   
@<TRIPOS>SUBSTRUCTURE
     1 MML         1 TEMP              0 ****  ****    0 ROOT
