@<TRIPOS>MOLECULE
MMN
   34    33     1     0     0
SMALL
abcg2


@<TRIPOS>ATOM
      1 C8           2.2490    -2.6670     0.8290 c3         1 MMN      -0.134100
      2 C7           2.1900    -1.5880    -0.2400 c3         1 MMN       0.421500
      3 O7           3.3660    -1.5520    -1.0220 oh         1 MMN      -0.662000
      4 N1           1.9630    -0.3080     0.3720 n7         1 MMN      -0.967400
      5 C2           1.3970     0.7490    -0.4440 c3         1 MMN       0.185500
      6 C1           2.2160     2.0240    -0.3000 c3         1 MMN       0.168600
      7 O1           2.1240     2.4870     1.0290 oh         1 MMN      -0.658000
      8 C3          -0.0950     0.9830    -0.1380 c3         1 MMN       0.117300
      9 O3          -0.6130     2.0860    -0.8540 oh         1 MMN      -0.702000
     10 C4          -0.9500    -0.2680    -0.3760 c3         1 MMN       0.100300
     11 O4          -0.9060    -0.6810    -1.7260 oh         1 MMN      -0.720000
     12 C5          -2.4020    -0.0820     0.1000 c3         1 MMN       0.139300
     13 O5          -2.4480     0.3560     1.4390 oh         1 MMN      -0.686000
     14 C6          -3.2110    -1.3550    -0.1030 c3         1 MMN       0.128600
     15 O6          -4.5440    -1.1110     0.2820 oh         1 MMN      -0.705000
     16 H81          3.0080    -2.4350     1.5790 hc         1 MMN       0.045700
     17 H82          1.2890    -2.7620     1.3390 hc         1 MMN       0.045700
     18 H83          2.4880    -3.6320     0.3860 hc         1 MMN       0.045700
     19 H7           1.4070    -1.8480    -0.9640 h2         1 MMN       0.065700
     20 HO7          4.0680    -1.2070    -0.4580 ho         1 MMN       0.447000
     21 HN1          1.5510    -0.3700     1.2920 hn         1 MMN       0.453000
     22 H2           1.4960     0.4500    -1.4940 h1         1 MMN       0.066700
     23 H11          3.2510     1.7790    -0.5690 h1         1 MMN       0.025200
     24 H12          1.8720     2.7810    -1.0160 h1         1 MMN       0.025200
     25 HO1          2.6570     3.2820     1.1070 ho         1 MMN       0.442000
     26 H3          -0.1830     1.2470     0.9200 h1         1 MMN       0.105700
     27 HO3         -0.3450     2.0190    -1.7760 ho         1 MMN       0.492000
     28 H4          -0.5190    -1.0950     0.2010 h1         1 MMN       0.065700
     29 HO4         -1.4050    -0.0540    -2.2630 ho         1 MMN       0.506000
     30 H5          -2.8630     0.7200    -0.4880 h1         1 MMN       0.095700
     31 HO5         -2.1100    -0.3460     2.0070 ho         1 MMN       0.494000
     32 H61         -3.1440    -1.6610    -1.1520 h1         1 MMN       0.025200
     33 H62         -2.7590    -2.1640     0.4920 h1         1 MMN       0.025200
     34 HO6         -5.0660    -1.8820     0.0440 ho         1 MMN       0.503000
@<TRIPOS>BOND
     1     1     2 1   
     2     1    16 1   
     3     1    17 1   
     4     1    18 1   
     5     2     3 1   
     6     2     4 1   
     7     2    19 1   
     8     3    20 1   
     9     4     5 1   
    10     4    21 1   
    11     5     6 1   
    12     5     8 1   
    13     5    22 1   
    14     6     7 1   
    15     6    23 1   
    16     6    24 1   
    17     7    25 1   
    18     8     9 1   
    19     8    10 1   
    20     8    26 1   
    21     9    27 1   
    22    10    11 1   
    23    10    12 1   
    24    10    28 1   
    25    11    29 1   
    26    12    13 1   
    27    12    14 1   
    28    12    30 1   
    29    13    31 1   
    30    14    15 1   
    31    14    32 1   
    32    14    33 1   
    33    15    34 1   
@<TRIPOS>SUBSTRUCTURE
     1 MMN         1 TEMP              0 ****  ****    0 ROOT
