@<TRIPOS>MOLECULE
MMN
   34    33     1     0     0
SMALL
No Charge or Current Charge


@<TRIPOS>ATOM
      1 C8           2.2610    -2.6970     0.9780 c3         1 MMN      -0.134100
      2 C7           2.1400    -1.7100    -0.1890 c3         1 MMN       0.421500
      3 O7           3.3270    -1.6410    -0.8790 oh         1 MMN      -0.662000
      4 N1           2.1250    -0.3570     0.2930 n7         1 MMN      -0.967400
      5 C2           1.5060     0.6810    -0.5990 c3         1 MMN       0.185500
      6 C1           2.3270     2.0090    -0.4810 c3         1 MMN       0.168600
      7 O1           2.1740     2.6260     0.8140 oh         1 MMN      -0.658000
      8 C3          -0.0270     0.9060    -0.3040 c3         1 MMN       0.117300
      9 O3          -0.5550     1.9390    -1.1760 oh         1 MMN      -0.702000
     10 C4          -0.9300    -0.3560    -0.4800 c3         1 MMN       0.100300
     11 O4          -1.0280    -0.6140    -1.8920 oh         1 MMN      -0.720000
     12 C5          -2.3550    -0.1790     0.1350 c3         1 MMN       0.139300
     13 O5          -2.2700     0.0360     1.5530 oh         1 MMN      -0.686000
     14 C6          -3.2720    -1.4130    -0.0790 c3         1 MMN       0.128600
     15 O6          -4.4700    -1.2690     0.7100 oh         1 MMN      -0.705000
     16 H81          3.1100    -2.4480     1.6270 hc         1 MMN       0.045700
     17 H82          1.3470    -2.6860     1.5840 hc         1 MMN       0.045700
     18 H83          2.4030    -3.7160     0.6000 hc         1 MMN       0.045700
     19 H7           1.3050    -1.9630    -0.8580 h2         1 MMN       0.065700
     20 HO7          3.5710    -0.7380    -0.5870 ho         1 MMN       0.447000
     21 HN1          1.6270    -0.3390     1.1910 hn         1 MMN       0.453000
     22 H2           1.5990     0.3660    -1.6490 h1         1 MMN       0.066700
     23 H11          3.3850     1.7850    -0.6680 h1         1 MMN       0.025200
     24 H12          2.0060     2.7040    -1.2680 h1         1 MMN       0.025200
     25 HO1          2.8750     3.3110     0.8860 ho         1 MMN       0.442000
     26 H3          -0.1070     1.2230     0.7470 h1         1 MMN       0.105700
     27 HO3         -0.2940     2.8070    -0.7880 ho         1 MMN       0.492000
     28 H4          -0.4710    -1.2090     0.0340 h1         1 MMN       0.065700
     29 HO4         -0.9800     0.2920    -2.2870 ho         1 MMN       0.506000
     30 H5          -2.8370     0.6830    -0.3490 h1         1 MMN       0.095700
     31 HO5         -3.1420    -0.2980     1.8780 ho         1 MMN       0.494000
     32 H61         -3.5240    -1.4980    -1.1450 h1         1 MMN       0.025200
     33 H62         -2.7320    -2.3250     0.2110 h1         1 MMN       0.025200
     34 HO6         -5.0670    -2.0180     0.4710 ho         1 MMN       0.503000
@<TRIPOS>BOND
     1     1     2 1   
     2     1    16 1   
     3     1    17 1   
     4     1    18 1   
     5     2     3 1   
     6     2     4 1   
     7     2    19 1   
     8     3    20 1   
     9     4     5 1   
    10     4    21 1   
    11     5     6 1   
    12     5     8 1   
    13     5    22 1   
    14     6     7 1   
    15     6    23 1   
    16     6    24 1   
    17     7    25 1   
    18     8     9 1   
    19     8    10 1   
    20     8    26 1   
    21     9    27 1   
    22    10    11 1   
    23    10    12 1   
    24    10    28 1   
    25    11    29 1   
    26    12    13 1   
    27    12    14 1   
    28    12    30 1   
    29    13    31 1   
    30    14    15 1   
    31    14    32 1   
    32    14    33 1   
    33    15    34 1   
@<TRIPOS>SUBSTRUCTURE
     1 MMN         1 TEMP              0 ****  ****    0 ROOT
