@<TRIPOS>MOLECULE
MMO
   28    27     1     0     0
SMALL
No Charge or Current Charge


@<TRIPOS>ATOM
      1 N           13.0670   -11.4400    15.6560 n7         1 MMO      -0.784200
      2 CA          14.3550   -11.6340    16.4250 c3         1 MMO       0.037500
      3 C           14.5600   -10.6880    17.6950 c          1 MMO       0.939600
      4 O           15.1720    -9.6280    17.5720 o          1 MMO      -0.830800
      5 CB          15.5770   -11.6080    15.4570 c3         1 MMO      -0.099400
      6 CG          15.5460   -12.7060    14.3600 c3         1 MMO      -0.098400
      7 CD          16.8180   -12.7590    13.4850 c3         1 MMO       0.225800
      8 NE          16.9150   -11.5730    12.6280 nu         1 MMO      -0.856200
      9 CZ          17.9670   -11.3380    11.8610 c2         1 MMO       0.801100
     10 NH2         17.9110   -12.1580    10.8340 nv         1 MMO      -0.963800
     11 NH1         18.4210   -10.1800    11.8270 n2         1 MMO      -0.910100
     12 CN          12.7990   -10.0850    15.1340 c3         1 MMO       0.159100
     13 H2          13.0670   -12.0930    14.8670 hn         1 MMO       0.307800
     14 HA          14.3330   -12.6490    16.8420 h1         1 MMO       0.033700
     15 HCB1        15.6610   -10.6190    14.9930 hc         1 MMO       0.051700
     16 HCB2        16.4870   -11.7450    16.0540 hc         1 MMO       0.051700
     17 HCG1        15.4300   -13.6820    14.8460 hc         1 MMO       0.036700
     18 HCG2        14.6720   -12.5730    13.7120 hc         1 MMO       0.036700
     19 HCD1        17.7030   -12.8310    14.1320 h1         1 MMO       0.024200
     20 HCD2        16.7820   -13.6640    12.8640 h1         1 MMO       0.024200
     21 HH21        18.0140   -11.6840     9.9490 hn         1 MMO       0.391300
     22 HH22        17.0880   -12.7350    10.9040 hn         1 MMO       0.391300
     23 HH11        19.0340   -10.1190    11.0070 hn         1 MMO       0.363400
     24 HC1         11.8280   -10.0610    14.6220 h1         1 MMO       0.015700
     25 HC2         12.7720    -9.3490    15.9470 h1         1 MMO       0.015700
     26 HC3         13.5680    -9.7800    14.4120 h1         1 MMO       0.015700
     27 OXT         14.1350   -11.0680    18.7830 o          1 MMO      -0.830800
     28 HE          16.6380   -10.7120    13.0790 hn         1 MMO       0.451800
@<TRIPOS>BOND
     1     1     2 1   
     2     1    12 1   
     3     1    13 1   
     4     2     3 1   
     5     2     5 1   
     6     2    14 1   
     7     3     4 1   
     8     3    27 1   
     9     5     6 1   
    10     5    15 1   
    11     5    16 1   
    12     6     7 1   
    13     6    17 1   
    14     6    18 1   
    15     7     8 1   
    16     7    19 1   
    17     7    20 1   
    18     8     9 1   
    19     8    28 1   
    20     9    10 1   
    21     9    11 2   
    22    10    21 1   
    23    10    22 1   
    24    11    23 1   
    25    12    24 1   
    26    12    25 1   
    27    12    26 1   
@<TRIPOS>SUBSTRUCTURE
     1 MMO         1 TEMP              0 ****  ****    0 ROOT
