@<TRIPOS>MOLECULE
MMO
   28    27     1     0     0
SMALL
bcc


@<TRIPOS>ATOM
      1 N           13.1160   -11.4020    15.9480 n7         1 MMO      -0.784200
      2 CA          14.4640   -11.6630    16.4590 c3         1 MMO       0.037500
      3 C           14.7430   -10.6930    17.6420 c          1 MMO       0.939600
      4 O           15.4420    -9.6840    17.4090 o          1 MMO      -0.830800
      5 CB          15.5700   -11.6510    15.4030 c3         1 MMO      -0.099400
      6 CG          15.3250   -12.6290    14.2580 c3         1 MMO      -0.098400
      7 CD          16.4700   -12.7010    13.2580 c3         1 MMO       0.225800
      8 NE          16.5870   -11.4610    12.5150 nu         1 MMO      -0.856200
      9 CZ          17.6750   -11.1200    11.7600 c2         1 MMO       0.801100
     10 NH2         18.4710   -12.1760    11.3810 nv         1 MMO      -0.963800
     11 NH1         17.8900    -9.8810    11.4900 n2         1 MMO      -0.910100
     12 CN          12.9630   -10.1860    15.1750 c3         1 MMO       0.159100
     13 H2          12.8150   -12.1880    15.3870 hn         1 MMO       0.307800
     14 HA          14.4200   -12.6740    16.8790 h1         1 MMO       0.033700
     15 HCB1        15.7080   -10.6360    15.0240 hc         1 MMO       0.051700
     16 HCB2        16.5160   -11.9150    15.8880 hc         1 MMO       0.051700
     17 HCG1        15.1760   -13.6340    14.6630 hc         1 MMO       0.036700
     18 HCG2        14.4050   -12.3760    13.7210 hc         1 MMO       0.036700
     19 HCD1        17.3980   -12.9380    13.7910 h1         1 MMO       0.024200
     20 HCD2        16.2820   -13.5320    12.5690 h1         1 MMO       0.024200
     21 HH21        19.1330   -11.9750    10.6480 hn         1 MMO       0.391300
     22 HH22        18.0290   -13.0730    11.2570 hn         1 MMO       0.391300
     23 HH11        18.6810    -9.7830    10.8650 hn         1 MMO       0.363400
     24 HC1         11.9310   -10.1110    14.8300 h1         1 MMO       0.015700
     25 HC2         13.1640    -9.3120    15.7950 h1         1 MMO       0.015700
     26 HC3         13.6090   -10.1110    14.2900 h1         1 MMO       0.015700
     27 OXT         14.2180   -10.9950    18.7320 o          1 MMO      -0.830800
     28 HE          16.1200   -10.6600    12.9090 hn         1 MMO       0.451800
@<TRIPOS>BOND
     1     1     2 1   
     2     1    12 1   
     3     1    13 1   
     4     2     3 1   
     5     2     5 1   
     6     2    14 1   
     7     3     4 1   
     8     3    27 1   
     9     5     6 1   
    10     5    15 1   
    11     5    16 1   
    12     6     7 1   
    13     6    17 1   
    14     6    18 1   
    15     7     8 1   
    16     7    19 1   
    17     7    20 1   
    18     8     9 1   
    19     8    28 1   
    20     9    10 1   
    21     9    11 2   
    22    10    21 1   
    23    10    22 1   
    24    11    23 1   
    25    12    24 1   
    26    12    25 1   
    27    12    26 1   
@<TRIPOS>SUBSTRUCTURE
     1 MMO         1 TEMP              0 ****  ****    0 ROOT
