@<TRIPOS>MOLECULE
MMP
   81    85     1     0     0
SMALL
No Charge or Current Charge


@<TRIPOS>ATOM
      1 C1          -3.9810    -1.1390     2.5090 c3         1 MMP       0.222100
      2 N1          -2.6300    -0.5720     2.2700 na         1 MMP      -0.364200
      3 C11         -2.1690     0.6200     2.7930 cc         1 MMP       0.067000
      4 C12         -1.0900     1.0330     1.9390 cc         1 MMP      -0.127200
      5 C13         -0.8390     0.0430     1.0050 cd         1 MMP      -0.123200
      6 C14         -1.7730    -1.0120     1.2770 cd         1 MMP       0.043000
      7 C15         -1.7310    -2.2790     0.7280 ce         1 MMP      -0.213600
      8 C16         -0.3280     2.3190     2.1530 c3         1 MMP      -0.018900
      9 C17          0.2640     0.0240    -0.0300 c3         1 MMP      -0.003200
     10 C18          1.5340    -0.6840     0.4770 c3         1 MMP      -0.087100
     11 N2          -2.3170    -3.7100     2.5880 nd         1 MMP      -0.634300
     12 C21         -2.0640    -3.5850     1.2960 cc         1 MMP       0.416900
     13 C22         -2.1260    -4.8130     0.5690 cc         1 MMP      -0.209800
     14 C23         -2.4610    -5.7770     1.4850 cd         1 MMP      -0.134200
     15 C24         -2.5700    -5.0530     2.7190 cd         1 MMP       0.165600
     16 C25         -2.8980    -5.5930     3.9420 ce         1 MMP      -0.243200
     17 C26         -1.8610    -4.9360    -0.9110 c3         1 MMP      -0.023900
     18 C27         -2.6720    -7.2580     1.2590 c3         1 MMP      -0.008200
     19 C28         -1.4220    -8.0860     1.6060 c3         1 MMP      -0.086100
     20 N3          -3.0590    -3.6000     5.4740 na         1 MMP      -0.141000
     21 C31         -3.1390    -4.9680     5.2420 cc         1 MMP       0.015200
     22 C32         -3.4920    -5.5230     6.4460 cd         1 MMP      -0.165300
     23 C33         -3.6400    -4.4790     7.4040 cd         1 MMP      -0.024300
     24 C34         -3.3640    -3.2790     6.7910 cc         1 MMP      -0.037800
     25 C35         -3.3750    -1.9120     7.3220 ce         1 MMP      -0.140200
     26 C36         -3.7070    -6.9960     6.7120 c3         1 MMP      -0.017800
     27 C37         -4.0550    -4.6720     8.8460 c3         1 MMP      -0.020100
     28 C38         -2.8500    -4.8980     9.7880 c3         1 MMP      -0.204400
     29 C39         -3.3480    -5.2110    11.2080 c          1 MMP       0.725000
     30 O31         -3.5590    -4.2760    11.9640 o          1 MMP      -0.734500
     31 O32         -3.5660    -6.3780    11.4970 o          1 MMP      -0.734500
     32 N4          -3.0520    -0.5660     5.3520 nd         1 MMP      -0.646300
     33 C41         -3.1750    -0.6870     6.7190 cd         1 MMP       0.167600
     34 C42         -3.0630     0.5650     7.4080 cd         1 MMP      -0.064200
     35 C43         -2.8450     1.4710     6.4040 cc         1 MMP      -0.253800
     36 C44         -2.8530     0.7350     5.1730 cc         1 MMP       0.457900
     37 C45         -2.6490     1.2480     3.9150 cf         1 MMP      -0.233600
     38 C46         -2.6200     2.9620     6.5070 c3         1 MMP      -0.017900
     39 C47         -3.1500     0.8280     8.8960 c3         1 MMP      -0.017200
     40 C48         -1.7870     0.6550     9.6050 c3         1 MMP      -0.203400
     41 C49         -1.9130     1.0410    11.0870 c          1 MMP       0.723000
     42 O41         -2.2420     0.1750    11.8830 o          1 MMP      -0.737000
     43 O42         -1.7300     2.2090    11.3960 o          1 MMP      -0.737000
     44 H11         -3.9640    -1.8690     3.3240 h1         1 MMP       0.056033
     45 H12         -4.6800    -0.3350     2.7710 h1         1 MMP       0.056033
     46 H13         -4.3460    -1.6320     1.6000 h1         1 MMP       0.056033
     47 H15         -1.0710    -2.3750    -0.1280 ha         1 MMP       0.169000
     48 H161         0.6060     2.3440     1.5800 hc         1 MMP       0.033033
     49 H162        -0.9310     3.1830     1.8500 hc         1 MMP       0.033033
     50 H163        -0.0600     2.4460     3.2090 hc         1 MMP       0.033033
     51 H171        -0.0820    -0.4720    -0.9440 hc         1 MMP       0.031700
     52 H172         0.5230     1.0460    -0.3330 hc         1 MMP       0.031700
     53 H181         1.9290    -0.1760     1.3650 hc         1 MMP       0.032700
     54 H182         2.3100    -0.6790    -0.2970 hc         1 MMP       0.032700
     55 H183         1.3180    -1.7260     0.7420 hc         1 MMP       0.032700
     56 H25         -3.0560    -6.6680     3.9320 ha         1 MMP       0.180000
     57 H261        -2.0710    -5.9450    -1.2820 hc         1 MMP       0.030700
     58 H262        -0.8130    -4.7110    -1.1370 hc         1 MMP       0.030700
     59 H263        -2.4880    -4.2370    -1.4780 hc         1 MMP       0.030700
     60 H271        -3.5170    -7.6160     1.8590 hc         1 MMP       0.035200
     61 H272        -2.9480    -7.4530     0.2160 hc         1 MMP       0.035200
     62 H281        -1.6090    -9.1530     1.4330 hc         1 MMP       0.031367
     63 H282        -1.1480    -7.9520     2.6590 hc         1 MMP       0.031367
     64 H283        -0.5720    -7.7790     0.9850 hc         1 MMP       0.031367
     65 HN3         -2.8060    -2.9210     4.7610 hn         1 MMP       0.409000
     66 H35         -3.4840    -1.8670     8.4030 ha         1 MMP       0.236000
     67 H361        -3.5080    -7.2540     7.7580 hc         1 MMP       0.038033
     68 H362        -3.0420    -7.6140     6.0990 hc         1 MMP       0.038033
     69 H363        -4.7400    -7.2860     6.4850 hc         1 MMP       0.038033
     70 H371        -4.7390    -5.5260     8.9230 hc         1 MMP       0.060200
     71 H372        -4.6300    -3.8060     9.1940 hc         1 MMP       0.060200
     72 H381        -2.3000    -5.7540     9.3790 hc         1 MMP       0.026200
     73 H382        -2.2800    -3.9610     9.7750 hc         1 MMP       0.026200
     74 H45         -2.3640     2.2930     3.9680 ha         1 MMP       0.179000
     75 H461        -1.6570     3.2420     6.0660 hc         1 MMP       0.033033
     76 H462        -2.6130     3.3050     7.5470 hc         1 MMP       0.033033
     77 H463        -3.4090     3.5120     5.9800 hc         1 MMP       0.033033
     78 H471        -3.8910     0.1660     9.3600 hc         1 MMP       0.054200
     79 H472        -3.5210     1.8450     9.0740 hc         1 MMP       0.054200
     80 H481        -1.5260    -0.4050     9.5020 hc         1 MMP       0.025200
     81 H482        -1.0940     1.3330     9.0920 hc         1 MMP       0.025200
@<TRIPOS>BOND
     1     1     2 1   
     2     1    44 1   
     3     1    45 1   
     4     1    46 1   
     5     2     3 1   
     6     2     6 1   
     7     3     4 1   
     8     3    37 2   
     9     4     5 2   
    10     4     8 1   
    11     5     6 1   
    12     5     9 1   
    13     6     7 2   
    14     7    12 1   
    15     7    47 1   
    16     8    48 1   
    17     8    49 1   
    18     8    50 1   
    19     9    10 1   
    20     9    51 1   
    21     9    52 1   
    22    10    53 1   
    23    10    54 1   
    24    10    55 1   
    25    11    12 2   
    26    11    15 1   
    27    12    13 1   
    28    13    14 2   
    29    13    17 1   
    30    14    15 1   
    31    14    18 1   
    32    15    16 2   
    33    16    21 1   
    34    16    56 1   
    35    17    57 1   
    36    17    58 1   
    37    17    59 1   
    38    18    19 1   
    39    18    60 1   
    40    18    61 1   
    41    19    62 1   
    42    19    63 1   
    43    19    64 1   
    44    20    21 1   
    45    20    24 1   
    46    20    65 1   
    47    21    22 2   
    48    22    23 1   
    49    22    26 1   
    50    23    24 2   
    51    23    27 1   
    52    24    25 1   
    53    25    33 2   
    54    25    66 1   
    55    26    67 1   
    56    26    68 1   
    57    26    69 1   
    58    27    28 1   
    59    27    70 1   
    60    27    71 1   
    61    28    29 1   
    62    28    72 1   
    63    28    73 1   
    64    29    30 1   
    65    29    31 1   
    66    32    33 1   
    67    32    36 2   
    68    33    34 1   
    69    34    35 2   
    70    34    39 1   
    71    35    36 1   
    72    35    38 1   
    73    36    37 1   
    74    37    74 1   
    75    38    75 1   
    76    38    76 1   
    77    38    77 1   
    78    39    40 1   
    79    39    78 1   
    80    39    79 1   
    81    40    41 1   
    82    40    80 1   
    83    40    81 1   
    84    41    42 1   
    85    41    43 1   
@<TRIPOS>SUBSTRUCTURE
     1 MMP         1 TEMP              0 ****  ****    0 ROOT
