@<TRIPOS>MOLECULE
MMP
   81    85     1     0     0
SMALL
bcc


@<TRIPOS>ATOM
      1 C1          -3.7820    -0.9810     2.6420 c3         1 MMP       0.222100
      2 N1          -2.3880    -0.6230     2.4140 na         1 MMP      -0.364200
      3 C11         -1.8820     0.5910     2.8120 cc         1 MMP       0.067000
      4 C12         -0.9160     1.0080     1.8500 cc         1 MMP      -0.127200
      5 C13         -0.8060     0.0070     0.9140 cd         1 MMP      -0.123200
      6 C14         -1.7040    -1.0340     1.2960 cd         1 MMP       0.043000
      7 C15         -1.7880    -2.2940     0.7140 ce         1 MMP      -0.163600
      8 C16         -0.0950     2.2470     1.9560 c3         1 MMP      -0.018900
      9 C17          0.1880    -0.0780    -0.1950 c3         1 MMP      -0.003200
     10 C18          1.5240    -0.6590     0.2680 c3         1 MMP      -0.087100
     11 N2          -2.5180    -3.6370     2.6120 nd         1 MMP      -0.634300
     12 C21         -2.1950    -3.4840     1.3120 cc         1 MMP       0.416900
     13 C22         -2.2060    -4.7680     0.6140 cc         1 MMP      -0.209800
     14 C23         -2.5520    -5.6940     1.5450 cd         1 MMP      -0.134200
     15 C24         -2.7340    -4.9480     2.7880 cd         1 MMP       0.165600
     16 C25         -3.0750    -5.5270     4.0120 ce         1 MMP      -0.193200
     17 C26         -1.8750    -4.9680    -0.8240 c3         1 MMP      -0.023900
     18 C27         -2.6530    -7.1750     1.3940 c3         1 MMP      -0.008200
     19 C28         -1.3640    -7.8910     1.8000 c3         1 MMP      -0.086100
     20 N3          -3.1280    -3.5360     5.4500 na         1 MMP      -0.192100
     21 C31         -3.2560    -4.8740     5.2200 cc         1 MMP       0.065900
     22 C32         -3.6290    -5.4830     6.4640 cd         1 MMP      -0.165300
     23 C33         -3.7240    -4.4900     7.4040 cd         1 MMP      -0.024300
     24 C34         -3.4040    -3.2490     6.7530 cc         1 MMP       0.012900
     25 C35         -3.4000    -1.9910     7.3320 ce         1 MMP      -0.090200
     26 C36         -3.8500    -6.9440     6.6530 c3         1 MMP      -0.017800
     27 C37         -4.0290    -4.6410     8.8560 c3         1 MMP      -0.020100
     28 C38         -2.7600    -4.8580     9.6780 c3         1 MMP      -0.204400
     29 C39         -2.9780    -5.0670    11.1880 c          1 MMP       0.935600
     30 O31         -1.9430    -5.2420    11.8630 o          1 MMP      -0.839800
     31 O32         -4.1480    -5.0500    11.6150 o          1 MMP      -0.839800
     32 N4          -2.8210    -0.6510     5.4040 nd         1 MMP      -0.646300
     33 C41         -3.1360    -0.7740     6.7010 cd         1 MMP       0.167600
     34 C42         -3.1630     0.5220     7.3750 cd         1 MMP      -0.064200
     35 C43         -2.8410     1.4320     6.4210 cc         1 MMP      -0.253800
     36 C44         -2.6280     0.6670     5.1930 cc         1 MMP       0.457900
     37 C45         -2.1670     1.2370     4.0100 cf         1 MMP      -0.183600
     38 C46         -2.7060     2.9090     6.5520 c3         1 MMP      -0.017900
     39 C47         -3.4100     0.7420     8.8300 c3         1 MMP      -0.017200
     40 C48         -2.1550     0.4930     9.6650 c3         1 MMP      -0.203400
     41 C49         -2.3120     0.7030    11.1810 c          1 MMP       0.933600
     42 O41         -1.2980     0.4650    11.8690 o          1 MMP      -0.842300
     43 O42         -3.4180     1.0940    11.6040 o          1 MMP      -0.842300
     44 H11         -3.9050    -1.7420     3.3980 h1         1 MMP       0.056033
     45 H12         -4.3260    -0.0900     2.9460 h1         1 MMP       0.056033
     46 H13         -4.2100    -1.3390     1.7080 h1         1 MMP       0.056033
     47 H15         -1.3770    -2.3780    -0.2860 ha         1 MMP       0.119000
     48 H161         0.3910     2.4820     1.0110 hc         1 MMP       0.033033
     49 H162        -0.7000     3.1090     2.2380 hc         1 MMP       0.033033
     50 H163         0.6880     2.1420     2.7100 hc         1 MMP       0.033033
     51 H171        -0.2090    -0.6810    -1.0150 hc         1 MMP       0.031700
     52 H172         0.3500     0.9190    -0.6110 hc         1 MMP       0.031700
     53 H181         1.9580    -0.0540     1.0640 hc         1 MMP       0.032700
     54 H182         2.2390    -0.6950    -0.5550 hc         1 MMP       0.032700
     55 H183         1.3990    -1.6730     0.6490 hc         1 MMP       0.032700
     56 H25         -3.2270    -6.5990     4.0310 ha         1 MMP       0.130000
     57 H261        -2.0560    -5.9960    -1.1370 hc         1 MMP       0.030700
     58 H262        -0.8240    -4.7470    -1.0260 hc         1 MMP       0.030700
     59 H263        -2.4660    -4.3190    -1.4710 hc         1 MMP       0.030700
     60 H271        -3.4850    -7.5580     1.9920 hc         1 MMP       0.035200
     61 H272        -2.8910    -7.4230     0.3570 hc         1 MMP       0.035200
     62 H281        -1.4620    -8.9710     1.6800 hc         1 MMP       0.031367
     63 H282        -1.1110    -7.6920     2.8410 hc         1 MMP       0.031367
     64 H283        -0.5260    -7.5590     1.1850 hc         1 MMP       0.031367
     65 HN3         -2.8410    -2.8550     4.7550 hn         1 MMP       0.358700
     66 H35         -3.6420    -1.9540     8.3870 ha         1 MMP       0.186000
     67 H361        -4.1680    -7.1650     7.6690 hc         1 MMP       0.038033
     68 H362        -2.9380    -7.5130     6.4640 hc         1 MMP       0.038033
     69 H363        -4.6150    -7.3280     5.9760 hc         1 MMP       0.038033
     70 H371        -4.7080    -5.4830     9.0020 hc         1 MMP       0.060200
     71 H372        -4.5640    -3.7640     9.2250 hc         1 MMP       0.060200
     72 H381        -2.2190    -5.7240     9.2830 hc         1 MMP       0.026200
     73 H382        -2.0800    -4.0100     9.5370 hc         1 MMP       0.026200
     74 H45         -1.8720     2.2790     4.0610 ha         1 MMP       0.129000
     75 H461        -1.6810     3.2400     6.3720 hc         1 MMP       0.033033
     76 H462        -2.9850     3.2440     7.5510 hc         1 MMP       0.033033
     77 H463        -3.3410     3.4390     5.8390 hc         1 MMP       0.033033
     78 H471        -4.2190     0.0960     9.1800 hc         1 MMP       0.054200
     79 H472        -3.7560     1.7650     8.9940 hc         1 MMP       0.054200
     80 H481        -1.7890    -0.5250     9.4910 hc         1 MMP       0.025200
     81 H482        -1.3490     1.1440     9.3070 hc         1 MMP       0.025200
@<TRIPOS>BOND
     1     1     2 1   
     2     1    44 1   
     3     1    45 1   
     4     1    46 1   
     5     2     3 1   
     6     2     6 1   
     7     3     4 1   
     8     3    37 2   
     9     4     5 2   
    10     4     8 1   
    11     5     6 1   
    12     5     9 1   
    13     6     7 2   
    14     7    12 1   
    15     7    47 1   
    16     8    48 1   
    17     8    49 1   
    18     8    50 1   
    19     9    10 1   
    20     9    51 1   
    21     9    52 1   
    22    10    53 1   
    23    10    54 1   
    24    10    55 1   
    25    11    12 2   
    26    11    15 1   
    27    12    13 1   
    28    13    14 2   
    29    13    17 1   
    30    14    15 1   
    31    14    18 1   
    32    15    16 2   
    33    16    21 1   
    34    16    56 1   
    35    17    57 1   
    36    17    58 1   
    37    17    59 1   
    38    18    19 1   
    39    18    60 1   
    40    18    61 1   
    41    19    62 1   
    42    19    63 1   
    43    19    64 1   
    44    20    21 1   
    45    20    24 1   
    46    20    65 1   
    47    21    22 2   
    48    22    23 1   
    49    22    26 1   
    50    23    24 2   
    51    23    27 1   
    52    24    25 1   
    53    25    33 2   
    54    25    66 1   
    55    26    67 1   
    56    26    68 1   
    57    26    69 1   
    58    27    28 1   
    59    27    70 1   
    60    27    71 1   
    61    28    29 1   
    62    28    72 1   
    63    28    73 1   
    64    29    30 1   
    65    29    31 1   
    66    32    33 1   
    67    32    36 2   
    68    33    34 1   
    69    34    35 2   
    70    34    39 1   
    71    35    36 1   
    72    35    38 1   
    73    36    37 1   
    74    37    74 1   
    75    38    75 1   
    76    38    76 1   
    77    38    77 1   
    78    39    40 1   
    79    39    78 1   
    80    39    79 1   
    81    40    41 1   
    82    40    80 1   
    83    40    81 1   
    84    41    42 1   
    85    41    43 1   
@<TRIPOS>SUBSTRUCTURE
     1 MMP         1 TEMP              0 ****  ****    0 ROOT
