@<TRIPOS>MOLECULE
MMQ
    9     8     1     0     0
SMALL
No Charge or Current Charge


@<TRIPOS>ATOM
      1 S1           2.3810     0.0860     0.0730 sh         1 MMQ      -0.461800
      2 P           -0.8640     0.0280     0.0320 p5         1 MMQ       1.304500
      3 O1P         -0.9470     0.9370    -1.1510 o          1 MMQ      -0.928167
      4 O2P         -1.9680    -0.9750    -0.0300 o          1 MMQ      -0.928167
      5 O3P         -0.9760     0.8200     1.2930 o          1 MMQ      -0.928167
      6 C1P          0.7780    -0.8870     0.0070 c3         1 MMQ      -0.173400
      7 HS1          3.2100    -0.9810     0.0320 hs         1 MMQ       0.079800
      8 HC11         0.7710    -1.5760     0.8610 h1         1 MMQ       0.018200
      9 HC12         0.7920    -1.4910    -0.9080 h1         1 MMQ       0.018200
@<TRIPOS>BOND
     1     1     6 1   
     2     1     7 1   
     3     2     3 1   
     4     2     4 1   
     5     2     5 1   
     6     2     6 1   
     7     6     8 1   
     8     6     9 1   
@<TRIPOS>SUBSTRUCTURE
     1 MMQ         1 TEMP              0 ****  ****    0 ROOT
