@<TRIPOS>MOLECULE
MMQ
    9     8     1     0     0
SMALL
bcc


@<TRIPOS>ATOM
      1 S1           2.1560     0.1050     0.2400 sh         1 MMQ      -0.413900
      2 P           -0.8510     0.0560     0.0270 p5         1 MMQ       1.146700
      3 O1P         -0.8020     0.8750    -1.2650 o          1 MMQ      -0.928167
      4 O2P         -1.9650    -0.9940     0.0640 o          1 MMQ      -0.928167
      5 O3P         -0.7230     0.8940     1.3020 o          1 MMQ      -0.928167
      6 C1P          0.7150    -0.9780     0.0080 c3         1 MMQ      -0.063500
      7 HS1          3.1380    -0.7640    -0.0350 hs         1 MMQ       0.079800
      8 HC11         0.6960    -1.7200     0.8080 h1         1 MMQ       0.018200
      9 HC12         0.8130    -1.5120    -0.9400 h1         1 MMQ       0.018200
@<TRIPOS>BOND
     1     1     6 1   
     2     1     7 1   
     3     2     3 1   
     4     2     4 1   
     5     2     5 1   
     6     2     6 1   
     7     6     8 1   
     8     6     9 1   
@<TRIPOS>SUBSTRUCTURE
     1 MMQ         1 TEMP              0 ****  ****    0 ROOT
