@<TRIPOS>MOLECULE
MMR
   41    41     1     0     0
SMALL
No Charge or Current Charge


@<TRIPOS>ATOM
      1 C1          -1.7030    -0.9650     0.4520 c6         1 MMR       0.376300
      2 O1          -1.9970    -2.3540     0.2300 os         1 MMR      -0.419000
      3 C2          -0.2910    -0.5950    -0.1130 c6         1 MMR       0.065700
      4 N2           0.7540    -1.4120     0.5560 ns         1 MMR      -0.494900
      5 C3          -0.0690     0.9480     0.0710 c6         1 MMR       0.172300
      6 O3           1.1470     1.4690    -0.5480 os         1 MMR      -0.421000
      7 C4          -1.2650     1.7490    -0.5280 c6         1 MMR       0.129300
      8 O4          -1.0680     3.1620    -0.3210 oh         1 MMR      -0.706000
      9 C5          -2.6080     1.2430     0.0710 c6         1 MMR       0.151300
     10 O5          -2.7240    -0.1770    -0.1840 os         1 MMR      -0.479000
     11 C6          -3.8530     1.9630    -0.5470 c3         1 MMR       0.165600
     12 O6          -5.1110     1.4600    -0.0520 oh         1 MMR      -0.709000
     13 C7          -3.1860    -2.8590     0.8580 c3         1 MMR       0.150900
     14 C8           1.2850    -2.5850     0.0730 c          1 MMR       0.631100
     15 O8           0.9780    -3.0530    -1.0130 o          1 MMR      -0.593100
     16 C9           2.3050    -3.2440     0.9900 c3         1 MMR      -0.185100
     17 C10          2.4800     1.0900    -0.0810 c3         1 MMR       0.034300
     18 C11          3.6200     1.7530    -0.9410 c          1 MMR       0.711000
     19 O11          3.3310     2.6040    -1.7750 o          1 MMR      -0.716500
     20 C12          2.6230     1.4780     1.4140 c3         1 MMR      -0.090100
     21 O12          4.7660     1.3510    -0.7810 o          1 MMR      -0.716500
     22 H1          -1.7160    -0.7690     1.5340 h2         1 MMR       0.006700
     23 H2          -0.2880    -0.8180    -1.1890 h1         1 MMR       0.120700
     24 HN2          1.0890    -1.1140     1.4650 hn         1 MMR       0.299500
     25 H3          -0.0380     1.1670     1.1480 h1         1 MMR       0.027700
     26 H4          -1.2900     1.5430    -1.6090 h1         1 MMR       0.060700
     27 HO4         -0.1090     3.3160    -0.4990 ho         1 MMR       0.495000
     28 H5          -2.6150     1.4130     1.1580 h1         1 MMR       0.048700
     29 H6          -3.7740     3.0370    -0.3310 h1         1 MMR       0.023700
     30 H6A         -3.8080     1.8480    -1.6390 h1         1 MMR       0.023700
     31 HO6         -5.8210     1.9250    -0.5520 ho         1 MMR       0.491000
     32 H7          -3.1380    -2.7230     1.9460 h1         1 MMR       0.026700
     33 H7A         -4.0790    -2.3440     0.4810 h1         1 MMR       0.026700
     34 H7B         -3.2990    -3.9310     0.6510 h1         1 MMR       0.026700
     35 H9           1.8450    -3.4150     1.9700 hc         1 MMR       0.061033
     36 H9A          2.7170    -4.1680     0.5690 hc         1 MMR       0.061033
     37 H9B          3.0930    -2.5200     1.2260 hc         1 MMR       0.061033
     38 H10          2.6290     0.0100    -0.1820 h1         1 MMR       0.008700
     39 H12          1.9640     0.8790     2.0520 hc         1 MMR       0.023700
     40 H12A         3.6490     1.3050     1.7580 hc         1 MMR       0.023700
     41 H12B         2.3900     2.5390     1.5630 hc         1 MMR       0.023700
@<TRIPOS>BOND
     1     1     2 1   
     2     1     3 1   
     3     1    10 1   
     4     1    22 1   
     5     2    13 1   
     6     3     4 1   
     7     3     5 1   
     8     3    23 1   
     9     4    14 1   
    10     4    24 1   
    11     5     6 1   
    12     5     7 1   
    13     5    25 1   
    14     6    17 1   
    15     7     8 1   
    16     7     9 1   
    17     7    26 1   
    18     8    27 1   
    19     9    10 1   
    20     9    11 1   
    21     9    28 1   
    22    11    12 1   
    23    11    29 1   
    24    11    30 1   
    25    12    31 1   
    26    13    32 1   
    27    13    33 1   
    28    13    34 1   
    29    14    15 2   
    30    14    16 1   
    31    16    35 1   
    32    16    36 1   
    33    16    37 1   
    34    17    18 1   
    35    17    20 1   
    36    17    38 1   
    37    18    19 1   
    38    18    21 1   
    39    20    39 1   
    40    20    40 1   
    41    20    41 1   
@<TRIPOS>SUBSTRUCTURE
     1 MMR         1 TEMP              0 ****  ****    0 ROOT
