@<TRIPOS>MOLECULE
MMR
   41    41     1     0     0
SMALL
bcc


@<TRIPOS>ATOM
      1 C1          -1.7730    -1.0730     0.3350 c6         1 MMR       0.329900
      2 O1          -2.0750    -2.3500    -0.0720 os         1 MMR      -0.372600
      3 C2          -0.3670    -0.7120    -0.1380 c6         1 MMR       0.065700
      4 N2           0.6240    -1.5850     0.4300 ns         1 MMR      -0.561900
      5 C3          -0.0570     0.7470     0.2200 c6         1 MMR       0.149100
      6 O3           1.1660     1.1260    -0.3370 os         1 MMR      -0.374600
      7 C4          -1.1580     1.6760    -0.2780 c6         1 MMR       0.106100
      8 O4          -0.9130     2.9600     0.2440 oh         1 MMR      -0.583800
      9 C5          -2.5260     1.1520     0.1830 c6         1 MMR       0.128100
     10 O5          -2.6980    -0.1850    -0.2370 os         1 MMR      -0.432600
     11 C6          -3.6660     1.9660    -0.3880 c3         1 MMR       0.142400
     12 O6          -4.8770     1.5090     0.1640 oh         1 MMR      -0.586800
     13 C7          -3.2250    -2.9050     0.5340 c3         1 MMR       0.127700
     14 C8           1.4090    -2.4200    -0.2800 c          1 MMR       0.698100
     15 O8           1.2980    -2.5860    -1.4850 o          1 MMR      -0.593100
     16 C9           2.4660    -3.1200     0.5380 c3         1 MMR      -0.185100
     17 C10          2.2860     1.1570     0.5310 c3         1 MMR       0.011100
     18 C11          3.4850     0.4180    -0.0950 c          1 MMR       0.921600
     19 O11          3.4730     0.2180    -1.3210 o          1 MMR      -0.821800
     20 C12          2.6510     2.6030     0.8430 c3         1 MMR      -0.090100
     21 O12          4.3910     0.1170     0.7110 o          1 MMR      -0.821800
     22 H1          -1.8280    -0.9910     1.4400 h2         1 MMR       0.006700
     23 H2          -0.3330    -0.8250    -1.2240 h1         1 MMR       0.120700
     24 HN2          0.7830    -1.5240     1.4240 hn         1 MMR       0.299500
     25 H3          -0.0330     0.8340     1.3200 h1         1 MMR       0.027700
     26 H4          -1.1380     1.6810    -1.3770 h1         1 MMR       0.060700
     27 HO4         -1.1880     3.6180    -0.4000 ho         1 MMR       0.396000
     28 H5          -2.5640     1.2140     1.2840 h1         1 MMR       0.048700
     29 H6          -3.4910     3.0210    -0.1510 h1         1 MMR       0.023700
     30 H6A         -3.6550     1.8760    -1.4840 h1         1 MMR       0.023700
     31 HO6         -5.5770     2.1000    -0.1270 ho         1 MMR       0.392000
     32 H7          -3.1890    -2.8100     1.6250 h1         1 MMR       0.026700
     33 H7A         -4.1490    -2.4430     0.1780 h1         1 MMR       0.026700
     34 H7B         -3.2470    -3.9640     0.2810 h1         1 MMR       0.026700
     35 H9           2.1300    -3.3420     1.5500 hc         1 MMR       0.061033
     36 H9A          2.7660    -4.0470     0.0540 hc         1 MMR       0.061033
     37 H9B          3.3430    -2.4750     0.6160 hc         1 MMR       0.061033
     38 H10          2.0400     0.6570     1.4750 h1         1 MMR       0.008700
     39 H12          1.8040     3.1270     1.2880 hc         1 MMR       0.023700
     40 H12A         3.4870     2.6480     1.5400 hc         1 MMR       0.023700
     41 H12B         2.9380     3.1390    -0.0640 hc         1 MMR       0.023700
@<TRIPOS>BOND
     1     1     2 1   
     2     1     3 1   
     3     1    10 1   
     4     1    22 1   
     5     2    13 1   
     6     3     4 1   
     7     3     5 1   
     8     3    23 1   
     9     4    14 1   
    10     4    24 1   
    11     5     6 1   
    12     5     7 1   
    13     5    25 1   
    14     6    17 1   
    15     7     8 1   
    16     7     9 1   
    17     7    26 1   
    18     8    27 1   
    19     9    10 1   
    20     9    11 1   
    21     9    28 1   
    22    11    12 1   
    23    11    29 1   
    24    11    30 1   
    25    12    31 1   
    26    13    32 1   
    27    13    33 1   
    28    13    34 1   
    29    14    15 2   
    30    14    16 1   
    31    16    35 1   
    32    16    36 1   
    33    16    37 1   
    34    17    18 1   
    35    17    20 1   
    36    17    38 1   
    37    18    19 1   
    38    18    21 1   
    39    20    39 1   
    40    20    40 1   
    41    20    41 1   
@<TRIPOS>SUBSTRUCTURE
     1 MMR         1 TEMP              0 ****  ****    0 ROOT
