@<TRIPOS>MOLECULE
MMS
   23    23     1     0     0
SMALL
bcc


@<TRIPOS>ATOM
      1 O4          -3.1350    -1.9060     0.4380 oh         1 MMS      -0.503100
      2 C1           3.4180    -0.3880     0.0590 c          1 MMS       0.907600
      3 O1           4.2740     0.5100     0.1560 o          1 MMS      -0.823300
      4 O2           3.5990    -1.5630    -0.3170 o          1 MMS      -0.823300
      5 N1           1.7480     1.2890     1.0020 n8         1 MMS      -0.898800
      6 C2           1.9500    -0.0170     0.4100 c3         1 MMS      -0.012500
      7 N2          -0.3060     0.0530    -0.6250 na         1 MMS      -0.437200
      8 C8          -1.0690    -1.0130    -0.2480 cc         1 MMS       0.018000
      9 C4          -0.8430     1.2810    -0.6550 cc         1 MMS       0.133000
     10 C7          -2.3750    -0.8570     0.0820 cd         1 MMS      -0.068100
     11 C5          -2.1540     1.5090    -0.3410 cd         1 MMS      -0.368200
     12 C6          -3.0140     0.4460     0.0570 c          1 MMS       0.546500
     13 O3          -4.2180     0.5400     0.3640 o          1 MMS      -0.665100
     14 HO4         -4.0210    -1.5480     0.6160 ho         1 MMS       0.442000
     15 HN11         2.0070     1.2560     1.9800 hn         1 MMS       0.338300
     16 HN12         2.4070     1.9320     0.5790 hn         1 MMS       0.338300
     17 HC2          1.5800    -0.7690     1.1150 h1         1 MMS       0.049700
     18 HC31         1.4360     0.5930    -1.6070 h1         1 MMS       0.066700
     19 HC32         1.2540    -1.1310    -1.3070 h1         1 MMS       0.066700
     20 HC8         -0.5800    -1.9780    -0.2370 h4         1 MMS       0.168000
     21 HC4         -0.1840     2.0820    -0.9520 h4         1 MMS       0.157000
     22 HC5         -2.5340     2.5200    -0.3980 ha         1 MMS       0.144000
     23 C3           1.1180    -0.1440    -0.8670 c3         1 MMS       0.224800
@<TRIPOS>BOND
     1     1    10 1   
     2     1    14 1   
     3     2     3 1   
     4     2     4 1   
     5     2     6 1   
     6     5     6 1   
     7     5    15 1   
     8     5    16 1   
     9     6    17 1   
    10     6    23 1   
    11     7     8 1   
    12     7     9 1   
    13     7    23 1   
    14     8    10 2   
    15     8    20 1   
    16     9    11 2   
    17     9    21 1   
    18    10    12 1   
    19    11    12 1   
    20    11    22 1   
    21    12    13 2   
    22    18    23 1   
    23    19    23 1   
@<TRIPOS>SUBSTRUCTURE
     1 MMS         1 TEMP              0 ****  ****    0 ROOT
