@<TRIPOS>MOLECULE
MMS
   23    23     1     0     0
SMALL
No Charge or Current Charge


@<TRIPOS>ATOM
      1 O4          -3.3130    -1.9980     0.1080 oh         1 MMS      -0.542100
      2 C1           3.4420    -0.5410     0.0600 c          1 MMS       0.697000
      3 O1           4.1240     0.0650    -0.7550 o          1 MMS      -0.718000
      4 O2           3.8340    -1.5330     0.6580 o          1 MMS      -0.718000
      5 N1           2.0500     1.4490     1.0500 n8         1 MMS      -1.009200
      6 C2           2.0350     0.0520     0.4400 c3         1 MMS      -0.012500
      7 N2          -0.3420     0.0730    -0.5130 na         1 MMS      -0.437200
      8 C8          -1.1320    -1.0920    -0.3080 cc         1 MMS      -0.032000
      9 C4          -0.9000     1.3750    -0.4300 cc         1 MMS       0.083000
     10 C7          -2.4810    -0.9360    -0.0810 cd         1 MMS      -0.068100
     11 C5          -2.2540     1.4820    -0.2040 cd         1 MMS      -0.418200
     12 C6          -3.1490     0.3700    -0.0180 c          1 MMS       0.546500
     13 O3          -4.3520     0.5070     0.1800 o          1 MMS      -0.665100
     14 HO4         -4.2130    -1.6160     0.2480 ho         1 MMS       0.481000
     15 HN11         2.6080     1.4350     1.9140 hn         1 MMS       0.393500
     16 HN12         2.5930     2.0710     0.4370 hn         1 MMS       0.393500
     17 HC2          1.6210    -0.6210     1.2040 h1         1 MMS       0.049700
     18 HC31         1.4050     0.6730    -1.5560 h1         1 MMS       0.066700
     19 HC32         1.2710    -1.0590    -1.2640 h1         1 MMS       0.066700
     20 HC8         -0.6400    -2.0600    -0.3530 h4         1 MMS       0.218000
     21 HC4         -0.2300     2.2230    -0.5580 h4         1 MMS       0.207000
     22 HC5         -2.7310     2.4520    -0.1450 ha         1 MMS       0.194000
     23 C3           1.1100    -0.0740    -0.8070 c3         1 MMS       0.224800
@<TRIPOS>BOND
     1     1    10 1   
     2     1    14 1   
     3     2     3 1   
     4     2     4 1   
     5     2     6 1   
     6     5     6 1   
     7     5    15 1   
     8     5    16 1   
     9     6    17 1   
    10     6    23 1   
    11     7     8 1   
    12     7     9 1   
    13     7    23 1   
    14     8    10 2   
    15     8    20 1   
    16     9    11 2   
    17     9    21 1   
    18    10    12 1   
    19    11    12 1   
    20    11    22 1   
    21    12    13 2   
    22    18    23 1   
    23    19    23 1   
@<TRIPOS>SUBSTRUCTURE
     1 MMS         1 TEMP              0 ****  ****    0 ROOT
