@<TRIPOS>MOLECULE
MMU
   14    13     1     0     0
SMALL
No Charge or Current Charge


@<TRIPOS>ATOM
      1 N1          -1.1460    -0.5450     0.0020 ns         1 MMU      -0.534400
      2 N2           1.1280    -0.5570     0.0290 ns         1 MMU      -0.534400
      3 CAA         -2.4970     0.0170    -0.0130 c3         1 MMU       0.114800
      4 CAB          2.4850    -0.0090     0.0450 c3         1 MMU       0.114800
      5 OAC          0.0010     1.4250     0.0170 o          1 MMU      -0.645100
      6 CAF         -0.0050     0.2060     0.0160 c          1 MMU       0.650100
      7 HN1         -1.0410    -1.5510     0.0030 hn         1 MMU       0.306500
      8 HN2          1.0120    -1.5620     0.0260 hn         1 MMU       0.306500
      9 HAA         -2.6300     0.6350    -0.9100 h1         1 MMU       0.036867
     10 HAAA        -3.2330    -0.7970    -0.0220 h1         1 MMU       0.036867
     11 HAAB        -2.6510     0.6340     0.8820 h1         1 MMU       0.036867
     12 HAB          2.6450     0.6070    -0.8490 h1         1 MMU       0.036867
     13 HABA         2.6250     0.6060     0.9430 h1         1 MMU       0.036867
     14 HABB         3.2120    -0.8310     0.0530 h1         1 MMU       0.036867
@<TRIPOS>BOND
     1     1     3 1   
     2     1     6 1   
     3     1     7 1   
     4     2     4 1   
     5     2     6 1   
     6     2     8 1   
     7     3     9 1   
     8     3    10 1   
     9     3    11 1   
    10     4    12 1   
    11     4    13 1   
    12     4    14 1   
    13     5     6 2   
@<TRIPOS>SUBSTRUCTURE
     1 MMU         1 TEMP              0 ****  ****    0 ROOT
