@<TRIPOS>MOLECULE
MMU
   14    13     1     0     0
SMALL
abcg2


@<TRIPOS>ATOM
      1 N1          -1.1570    -0.5940     0.0320 ns         1 MMU      -0.534400
      2 N2           1.1380    -0.6060     0.0130 ns         1 MMU      -0.534400
      3 CAA         -2.4460     0.0470    -0.0180 c3         1 MMU       0.114800
      4 CAB          2.4340     0.0220     0.0470 c3         1 MMU       0.114800
      5 OAC          0.0010     1.3520     0.0360 o          1 MMU      -0.645100
      6 CAF         -0.0060     0.1220     0.0260 c          1 MMU       0.650100
      7 HN1         -1.1250    -1.5970    -0.0170 hn         1 MMU       0.306500
      8 HN2          1.0960    -1.6100     0.0200 hn         1 MMU       0.306500
      9 HAA         -2.6030     0.6000    -0.9460 h1         1 MMU       0.036867
     10 HAAA        -3.2110    -0.7220     0.0480 h1         1 MMU       0.036867
     11 HAAB        -2.5900     0.7370     0.8150 h1         1 MMU       0.036867
     12 HAB          2.5870     0.6960    -0.7970 h1         1 MMU       0.036867
     13 HABA         2.5970     0.5890     0.9660 h1         1 MMU       0.036867
     14 HABB         3.1900    -0.7570    -0.0040 h1         1 MMU       0.036867
@<TRIPOS>BOND
     1     1     3 1   
     2     1     6 1   
     3     1     7 1   
     4     2     4 1   
     5     2     6 1   
     6     2     8 1   
     7     3     9 1   
     8     3    10 1   
     9     3    11 1   
    10     4    12 1   
    11     4    13 1   
    12     4    14 1   
    13     5     6 2   
@<TRIPOS>SUBSTRUCTURE
     1 MMU         1 TEMP              0 ****  ****    0 ROOT
