@<TRIPOS>MOLECULE
MMV
   49    50     1     0     0
SMALL
No Charge or Current Charge


@<TRIPOS>ATOM
      1 C1          -4.4290    -0.1760    -1.4080 ca         1 MMV       0.395900
      2 N2          -5.7520    -0.0500    -1.5540 nb         1 MMV      -0.326000
      3 C3          -6.4550     0.0380    -0.4190 ca         1 MMV       0.396900
      4 N4          -5.9960     0.0010     0.8390 nb         1 MMV      -0.285000
      5 C5          -4.6600    -0.1290     0.9870 ca         1 MMV       0.176300
      6 C6          -3.8090    -0.2140    -0.1370 ca         1 MMV      -0.117900
      7 N7          -3.7420    -0.3100    -2.5750 nv         1 MMV      -1.053900
      8 N8          -7.7930     0.1650    -0.5620 nv         1 MMV      -1.050900
      9 C9          -4.1320    -0.1730     2.4180 c3         1 MMV      -0.127700
     10 C10         -3.8670    -1.6100     2.9060 c3         1 MMV      -0.082100
     11 O11         -2.4410    -0.3540     0.0230 os         1 MMV      -0.340100
     12 C12         -1.5640     0.7220    -0.3490 c3         1 MMV       0.152600
     13 C13         -0.1320     0.3020     0.0210 c3         1 MMV      -0.090400
     14 C14          0.9040     1.3890    -0.3110 c3         1 MMV       0.171600
     15 O15          2.1940     0.8910     0.0740 os         1 MMV      -0.325100
     16 C16          3.3550     1.6240    -0.0950 ca         1 MMV       0.137100
     17 C17          4.5870     1.0490     0.2980 ca         1 MMV      -0.069300
     18 C18          5.7800     1.7800     0.1290 ca         1 MMV      -0.091000
     19 C19          5.7520     3.0720    -0.4220 ca         1 MMV      -0.153000
     20 C20          4.5320     3.6450    -0.8090 ca         1 MMV      -0.102000
     21 C21          3.3360     2.9260    -0.6480 ca         1 MMV      -0.209000
     22 C22          4.6550    -0.3560     0.8980 c3         1 MMV      -0.012100
     23 C23          4.7820    -1.4540    -0.1850 c3         1 MMV      -0.201400
     24 C24          4.8850    -2.8360     0.4790 c          1 MMV       0.718000
     25 O25          3.8510    -3.4410     0.7190 o          1 MMV      -0.742500
     26 O26          5.9940    -3.2470     0.7840 o          1 MMV      -0.742500
     27 H1          -2.8020    -0.6920    -2.5210 hn         1 MMV       0.492500
     28 H2          -4.2680    -0.5200    -3.4190 hn         1 MMV       0.492500
     29 H3          -8.3820     0.0130     0.2530 hn         1 MMV       0.478500
     30 H4          -8.2050    -0.0220    -1.4720 hn         1 MMV       0.478500
     31 H5          -3.2030     0.4060     2.4920 hc         1 MMV       0.057700
     32 H6          -4.8410     0.3080     3.1020 hc         1 MMV       0.057700
     33 H7          -4.7890    -2.2040     2.8800 hc         1 MMV       0.037700
     34 H8          -3.1200    -2.1040     2.2720 hc         1 MMV       0.037700
     35 H9          -3.4910    -1.6030     3.9360 hc         1 MMV       0.037700
     36 H10         -1.6210     0.9290    -1.4250 h1         1 MMV       0.026700
     37 H11         -1.8310     1.6370     0.1950 h1         1 MMV       0.026700
     38 H12         -0.0880     0.0790     1.0940 hc         1 MMV       0.076200
     39 H13          0.1260    -0.6180    -0.5170 hc         1 MMV       0.076200
     40 H14          0.8770     1.6050    -1.3870 h1         1 MMV       0.023200
     41 H15          0.6620     2.3070     0.2410 h1         1 MMV       0.023200
     42 H16          6.7330     1.3450     0.4230 ha         1 MMV       0.114000
     43 H17          6.6780     3.6280    -0.5480 ha         1 MMV       0.099000
     44 H18          4.5130     4.6450    -1.2350 ha         1 MMV       0.093000
     45 H19          2.4070     3.3950    -0.9580 ha         1 MMV       0.101000
     46 H20          5.5110    -0.4280     1.5800 hc         1 MMV       0.052700
     47 H21          3.7700    -0.5550     1.5150 hc         1 MMV       0.052700
     48 H22          3.8710    -1.3840    -0.7920 hc         1 MMV       0.021200
     49 H23          5.7010    -1.2230    -0.7380 hc         1 MMV       0.021200
@<TRIPOS>BOND
     1     1     2 ar  
     2     1     6 ar  
     3     1     7 1   
     4     2     3 ar  
     5     3     4 ar  
     6     3     8 1   
     7     4     5 ar  
     8     5     6 ar  
     9     5     9 1   
    10     6    11 1   
    11     7    27 1   
    12     7    28 1   
    13     8    29 1   
    14     8    30 1   
    15     9    10 1   
    16     9    31 1   
    17     9    32 1   
    18    10    33 1   
    19    10    34 1   
    20    10    35 1   
    21    11    12 1   
    22    12    13 1   
    23    12    36 1   
    24    12    37 1   
    25    13    14 1   
    26    13    38 1   
    27    13    39 1   
    28    14    15 1   
    29    14    40 1   
    30    14    41 1   
    31    15    16 1   
    32    16    17 ar  
    33    16    21 ar  
    34    17    18 ar  
    35    17    22 1   
    36    18    19 ar  
    37    18    42 1   
    38    19    20 ar  
    39    19    43 1   
    40    20    21 ar  
    41    20    44 1   
    42    21    45 1   
    43    22    23 1   
    44    22    46 1   
    45    22    47 1   
    46    23    24 1   
    47    23    48 1   
    48    23    49 1   
    49    24    25 1   
    50    24    26 1   
@<TRIPOS>SUBSTRUCTURE
     1 MMV         1 TEMP              0 ****  ****    0 ROOT
