@<TRIPOS>MOLECULE
MMV
   49    50     1     0     0
SMALL
abcg2


@<TRIPOS>ATOM
      1 C1          -4.0910    -0.7340    -1.2870 ca         1 MMV       0.395900
      2 N2          -5.3680    -0.5560    -1.6010 nb         1 MMV      -0.326000
      3 C3          -6.1610    -0.0540    -0.6540 ca         1 MMV       0.396900
      4 N4          -5.8020     0.2680     0.5850 nb         1 MMV      -0.285000
      5 C5          -4.5140     0.0930     0.9050 ca         1 MMV       0.176300
      6 C6          -3.6060    -0.4020    -0.0050 ca         1 MMV      -0.117900
      7 N7          -3.2640    -1.2230    -2.2350 nv         1 MMV      -1.053900
      8 N8          -7.4530     0.1790    -1.0040 nv         1 MMV      -1.050900
      9 C9          -4.1320     0.3970     2.3240 c3         1 MMV      -0.127700
     10 C10         -4.4310    -0.7920     3.2380 c3         1 MMV      -0.082100
     11 O11         -2.2890    -0.6120     0.2970 os         1 MMV      -0.340100
     12 C12         -1.4420     0.4980     0.0060 c3         1 MMV       0.152600
     13 C13         -0.0110     0.0790     0.2680 c3         1 MMV      -0.090400
     14 C14          0.9410     1.2370     0.0440 c3         1 MMV       0.171600
     15 O15          2.2540     0.7520     0.2430 os         1 MMV      -0.325100
     16 C16          3.3020     1.5880     0.0880 ca         1 MMV       0.137100
     17 C17          4.5730     1.0090     0.2440 ca         1 MMV      -0.069300
     18 C18          5.6820     1.8310     0.1040 ca         1 MMV      -0.091000
     19 C19          5.5660     3.1880    -0.1860 ca         1 MMV      -0.153000
     20 C20          4.3060     3.7370    -0.3420 ca         1 MMV      -0.102000
     21 C21          3.1710     2.9420    -0.2070 ca         1 MMV      -0.209000
     22 C22          4.7340    -0.4640     0.5030 c3         1 MMV      -0.012100
     23 C23          4.5220    -1.2970    -0.7590 c3         1 MMV      -0.201400
     24 C24          4.6970    -2.8170    -0.5870 c          1 MMV       0.718000
     25 O25          4.4760    -3.5050    -1.6060 o          1 MMV      -0.742500
     26 O26          5.0430    -3.2420     0.5320 o          1 MMV      -0.742500
     27 H1          -2.3840    -1.6220    -1.9570 hn         1 MMV       0.492500
     28 H2          -3.6860    -1.6260    -3.0550 hn         1 MMV       0.492500
     29 H3          -8.1140     0.3040    -0.2570 hn         1 MMV       0.478500
     30 H4          -7.8040    -0.2990    -1.8160 hn         1 MMV       0.478500
     31 H5          -3.0770     0.6570     2.4020 hc         1 MMV       0.057700
     32 H6          -4.7030     1.2650     2.6560 hc         1 MMV       0.057700
     33 H7          -5.4880    -1.0580     3.2020 hc         1 MMV       0.037700
     34 H8          -3.8530    -1.6690     2.9440 hc         1 MMV       0.037700
     35 H9          -4.1790    -0.5560     4.2710 hc         1 MMV       0.037700
     36 H10         -1.5670     0.8090    -1.0380 h1         1 MMV       0.026700
     37 H11         -1.7170     1.3530     0.6340 h1         1 MMV       0.026700
     38 H12          0.0830    -0.2770     1.2980 hc         1 MMV       0.076200
     39 H13          0.2580    -0.7470    -0.3950 hc         1 MMV       0.076200
     40 H14          0.8290     1.6350    -0.9720 h1         1 MMV       0.023200
     41 H15          0.7180     2.0530     0.7420 h1         1 MMV       0.023200
     42 H16          6.6670     1.3950     0.2280 ha         1 MMV       0.114000
     43 H17          6.4510     3.8020    -0.2890 ha         1 MMV       0.099000
     44 H18          4.1890     4.7890    -0.5690 ha         1 MMV       0.093000
     45 H19          2.1970     3.3960    -0.3340 ha         1 MMV       0.101000
     46 H20          5.7390    -0.6420     0.8890 hc         1 MMV       0.052700
     47 H21          4.0450    -0.7950     1.2820 hc         1 MMV       0.052700
     48 H22          3.5230    -1.1110    -1.1630 hc         1 MMV       0.021200
     49 H23          5.2150    -0.9580    -1.5380 hc         1 MMV       0.021200
@<TRIPOS>BOND
     1     1     2 ar  
     2     1     6 ar  
     3     1     7 1   
     4     2     3 ar  
     5     3     4 ar  
     6     3     8 1   
     7     4     5 ar  
     8     5     6 ar  
     9     5     9 1   
    10     6    11 1   
    11     7    27 1   
    12     7    28 1   
    13     8    29 1   
    14     8    30 1   
    15     9    10 1   
    16     9    31 1   
    17     9    32 1   
    18    10    33 1   
    19    10    34 1   
    20    10    35 1   
    21    11    12 1   
    22    12    13 1   
    23    12    36 1   
    24    12    37 1   
    25    13    14 1   
    26    13    38 1   
    27    13    39 1   
    28    14    15 1   
    29    14    40 1   
    30    14    41 1   
    31    15    16 1   
    32    16    17 ar  
    33    16    21 ar  
    34    17    18 ar  
    35    17    22 1   
    36    18    19 ar  
    37    18    42 1   
    38    19    20 ar  
    39    19    43 1   
    40    20    21 ar  
    41    20    44 1   
    42    21    45 1   
    43    22    23 1   
    44    22    46 1   
    45    22    47 1   
    46    23    24 1   
    47    23    48 1   
    48    23    49 1   
    49    24    25 1   
    50    24    26 1   
@<TRIPOS>SUBSTRUCTURE
     1 MMV         1 TEMP              0 ****  ****    0 ROOT
