@<TRIPOS>MOLECULE
MMW
   46    48     1     0     0
SMALL
abcg2


@<TRIPOS>ATOM
      1 C1           4.5620     3.1040    -0.0800 c6         1 MMW      -0.075400
      2 C2           3.0350     3.0170    -0.0890 c6         1 MMW      -0.105400
      3 C3           2.5350     2.1810     1.0840 c6         1 MMW       0.215800
      4 C4           4.6300     0.9720     1.2240 c6         1 MMW       0.176800
      5 C5           2.5680    -0.2460     0.7050 ca         1 MMW       0.441900
      6 C7           1.3190    -2.5170    -0.0710 ca         1 MMW      -0.401600
      7 C9           0.6400    -1.2650     0.0180 ca         1 MMW       0.472900
      8 N            5.0960     1.0140    -1.2410 n8         1 MMW      -0.995200
      9 C            5.2180     1.7260     0.0220 c6         1 MMW       0.142500
     10 O           -0.5760    -3.8330    -0.6050 o          1 MMW      -0.653100
     11 C10         -1.5220    -0.0870    -0.2880 ca         1 MMW       0.308000
     12 C11         -1.1090     1.2250    -0.5360 ca         1 MMW      -0.097000
     13 C12         -2.0410     2.2480    -0.5620 ca         1 MMW      -0.101000
     14 C13         -3.3910     2.0040    -0.3580 ca         1 MMW      -0.085000
     15 C14         -3.8030     0.6980    -0.1310 ca         1 MMW      -0.172300
     16 C15         -2.8790    -0.3370    -0.0900 ca         1 MMW      -0.109000
     17 C16         -5.2450     0.3640     0.0900 c3         1 MMW       0.356300
     18 C6           2.6540    -2.4630     0.3090 ca         1 MMW       0.206900
     19 C8           0.6530    -3.7600    -0.4940 c          1 MMW       0.653700
     20 F           -5.6850    -0.5410    -0.7980 f          1 MMW      -0.113667
     21 F1          -5.4520    -0.1680     1.3040 f          1 MMW      -0.113667
     22 F2          -6.0440     1.4290    -0.0110 f          1 MMW      -0.113667
     23 N1           3.1880     0.8820     1.0950 nh         1 MMW      -0.756300
     24 N2           3.2920    -1.3790     0.6890 nb         1 MMW      -0.290000
     25 N3           1.4260    -4.8290    -0.7420 nt         1 MMW      -0.592000
     26 N4          -0.6760    -1.1910    -0.2810 nu         1 MMW      -0.937900
     27 N5           1.2740    -0.1680     0.3910 nb         1 MMW      -0.340000
     28 H1           4.9220     3.6180    -0.9740 hc         1 MMW       0.052200
     29 H2           4.8780     3.7040     0.7780 hc         1 MMW       0.052200
     30 H3           2.6050     4.0190    -0.0230 hc         1 MMW       0.051700
     31 H4           2.6700     2.5860    -1.0260 hc         1 MMW       0.051700
     32 H5           2.7840     2.6820     2.0250 h1         1 MMW       0.067700
     33 H6           1.4580     2.0520     1.0560 h1         1 MMW       0.067700
     34 H7           5.0560    -0.0240     1.3070 h1         1 MMW       0.072200
     35 H8           4.8600     1.5080     2.1510 h1         1 MMW       0.072200
     36 H9           5.4530     0.0710    -1.1410 hn         1 MMW       0.399000
     37 H10          4.1220     0.9090    -1.4990 hn         1 MMW       0.399000
     38 H12          6.2860     1.8630     0.2210 h1         1 MMW       0.068700
     39 H13         -0.0690     1.4440    -0.7180 ha         1 MMW       0.140000
     40 H14         -1.7070     3.2590    -0.7560 ha         1 MMW       0.118000
     41 H15         -4.0960     2.8220    -0.3870 ha         1 MMW       0.132000
     42 H16         -3.2030    -1.3540     0.0990 ha         1 MMW       0.135000
     43 H17          3.2540    -3.3680     0.3260 h4         1 MMW       0.012100
     44 H18          0.9900    -5.6760    -1.0650 hn         1 MMW       0.315500
     45 H19          2.4250    -4.7800    -0.8300 hn         1 MMW       0.315500
     46 H20         -1.0970    -2.1050    -0.4430 hn         1 MMW       0.553000
@<TRIPOS>BOND
     1     1     2 1   
     2     1     9 1   
     3     1    28 1   
     4     1    29 1   
     5     2     3 1   
     6     2    30 1   
     7     2    31 1   
     8     3    23 1   
     9     3    32 1   
    10     3    33 1   
    11     4     9 1   
    12     4    23 1   
    13     4    34 1   
    14     4    35 1   
    15     5    23 1   
    16     5    24 ar  
    17     5    27 ar  
    18     6     7 ar  
    19     6    18 ar  
    20     6    19 1   
    21     7    26 1   
    22     7    27 ar  
    23     8     9 1   
    24     8    36 1   
    25     8    37 1   
    26     9    38 1   
    27    10    19 2   
    28    11    12 ar  
    29    11    16 ar  
    30    11    26 1   
    31    12    13 ar  
    32    12    39 1   
    33    13    14 ar  
    34    13    40 1   
    35    14    15 ar  
    36    14    41 1   
    37    15    16 ar  
    38    15    17 1   
    39    16    42 1   
    40    17    20 1   
    41    17    21 1   
    42    17    22 1   
    43    18    24 ar  
    44    18    43 1   
    45    19    25 1   
    46    25    44 1   
    47    25    45 1   
    48    26    46 1   
@<TRIPOS>SUBSTRUCTURE
     1 MMW         1 TEMP              0 ****  ****    0 ROOT
