@<TRIPOS>MOLECULE
MMW
   46    48     1     0     0
SMALL
No Charge or Current Charge


@<TRIPOS>ATOM
      1 C1           4.8930     3.3490     0.5800 c6         1 MMW      -0.075400
      2 C2           3.4000     3.3480     0.1620 c6         1 MMW      -0.105400
      3 C3           2.6360     2.1310     0.7450 c6         1 MMW       0.215800
      4 C4           4.7720     0.8190     0.8390 c6         1 MMW       0.176800
      5 C5           2.5870    -0.3710     0.2400 ca         1 MMW       0.441900
      6 C7           1.1760    -2.6510    -0.1060 ca         1 MMW      -0.401600
      7 C9           0.5640    -1.3880    -0.1110 ca         1 MMW       0.472900
      8 N            5.6840     1.8750    -1.2640 n8         1 MMW      -0.995200
      9 C            5.5760     2.0070     0.2140 c6         1 MMW       0.142500
     10 O           -0.8060    -3.9750    -0.3260 o          1 MMW      -0.653100
     11 C10         -1.7110    -0.2030    -0.3760 ca         1 MMW       0.308000
     12 C11         -1.3480     1.0650    -0.8720 ca         1 MMW      -0.097000
     13 C12         -2.3020     2.0930    -0.9620 ca         1 MMW      -0.101000
     14 C13         -3.6300     1.8610    -0.5700 ca         1 MMW      -0.085000
     15 C14         -4.0220     0.5910    -0.0960 ca         1 MMW      -0.172300
     16 C15         -3.0480    -0.4310    -0.0030 ca         1 MMW      -0.109000
     17 C16         -5.4690     0.3270     0.3370 c3         1 MMW       0.356300
     18 C6           2.5710    -2.6590     0.0720 ca         1 MMW       0.206900
     19 C8           0.4120    -3.9270    -0.2670 c          1 MMW       0.653700
     20 F           -5.8540    -0.9460     0.0870 f          1 MMW      -0.113667
     21 F1          -5.6310     0.5350     1.6630 f          1 MMW      -0.113667
     22 F2          -6.3550     1.1280    -0.2990 f          1 MMW      -0.113667
     23 N1           3.3230     0.8350     0.4220 nh         1 MMW      -0.756300
     24 N2           3.2740    -1.5280     0.2420 nb         1 MMW      -0.290000
     25 N3           1.1100    -5.0740    -0.3310 nt         1 MMW      -0.592000
     26 N4          -0.8030    -1.2640    -0.2720 nu         1 MMW      -0.937900
     27 N5           1.2600    -0.2610     0.0730 nb         1 MMW      -0.340000
     28 H1           5.4190     4.1880     0.1030 hc         1 MMW       0.052200
     29 H2           4.9710     3.5130     1.6640 hc         1 MMW       0.052200
     30 H3           2.9190     4.2760     0.4980 hc         1 MMW       0.051700
     31 H4           3.3150     3.3390    -0.9330 hc         1 MMW       0.051700
     32 H5           2.5550     2.2460     1.8370 h1         1 MMW       0.067700
     33 H6           1.6120     2.1670     0.3450 h1         1 MMW       0.067700
     34 H7           5.2780    -0.1130     0.5460 h1         1 MMW       0.072200
     35 H8           4.8430     0.8800     1.9360 h1         1 MMW       0.072200
     36 H9           6.1500     0.9880    -1.4810 hn         1 MMW       0.399000
     37 H10          4.7280     1.7200    -1.6060 hn         1 MMW       0.399000
     38 H12          6.5980     2.0040     0.6260 h1         1 MMW       0.068700
     39 H13         -0.3350     1.2590    -1.2060 ha         1 MMW       0.140000
     40 H14         -2.0110     3.0700    -1.3410 ha         1 MMW       0.118000
     41 H15         -4.3520     2.6720    -0.6420 ha         1 MMW       0.132000
     42 H16         -3.3300    -1.4100     0.3750 ha         1 MMW       0.135000
     43 H17          3.1500    -3.5790     0.0910 h4         1 MMW       0.012100
     44 H18          0.6120    -5.9440    -0.4350 hn         1 MMW       0.315500
     45 H19          2.1160    -5.0600    -0.2840 hn         1 MMW       0.315500
     46 H20         -1.2380    -2.1940    -0.2610 hn         1 MMW       0.553000
@<TRIPOS>BOND
     1     1     2 1   
     2     1     9 1   
     3     1    28 1   
     4     1    29 1   
     5     2     3 1   
     6     2    30 1   
     7     2    31 1   
     8     3    23 1   
     9     3    32 1   
    10     3    33 1   
    11     4     9 1   
    12     4    23 1   
    13     4    34 1   
    14     4    35 1   
    15     5    23 1   
    16     5    24 ar  
    17     5    27 ar  
    18     6     7 ar  
    19     6    18 ar  
    20     6    19 1   
    21     7    26 1   
    22     7    27 ar  
    23     8     9 1   
    24     8    36 1   
    25     8    37 1   
    26     9    38 1   
    27    10    19 2   
    28    11    12 ar  
    29    11    16 ar  
    30    11    26 1   
    31    12    13 ar  
    32    12    39 1   
    33    13    14 ar  
    34    13    40 1   
    35    14    15 ar  
    36    14    41 1   
    37    15    16 ar  
    38    15    17 1   
    39    16    42 1   
    40    17    20 1   
    41    17    21 1   
    42    17    22 1   
    43    18    24 ar  
    44    18    43 1   
    45    19    25 1   
    46    25    44 1   
    47    25    45 1   
    48    26    46 1   
@<TRIPOS>SUBSTRUCTURE
     1 MMW         1 TEMP              0 ****  ****    0 ROOT
