@<TRIPOS>MOLECULE
MMY
   48    52     1     0     0
SMALL
abcg2


@<TRIPOS>ATOM
      1 C1          -3.8460     0.6330    -0.6390 ca         1 MMY      -0.099000
      2 C2          -5.2290     0.6340    -0.6050 ca         1 MMY      -0.140000
      3 C3          -5.8980     1.7170    -0.0570 ca         1 MMY       0.304900
      4 N4          -5.2570     2.7680     0.4360 nb         1 MMY      -0.646000
      5 C5          -3.9330     2.7740     0.4120 ca         1 MMY       0.284900
      6 C6          -3.1580     1.7290    -0.1080 ca         1 MMY       0.268000
      7 N7          -1.7750     1.8360    -0.1140 nh         1 MMY      -0.793100
      8 C8          -1.0990     3.1010     0.1880 c5         1 MMY       0.218800
      9 C9           0.3880     2.8300    -0.0880 c5         1 MMY      -0.010100
     10 C10          0.4470     1.3350    -0.1260 ca         1 MMY      -0.303300
     11 C11         -0.8580     0.8210    -0.1680 ca         1 MMY       0.408900
     12 N12         -1.1610    -0.4540    -0.2170 nb         1 MMY      -0.296000
     13 C13         -0.1050    -1.2880    -0.2000 ca         1 MMY       0.434900
     14 N14         -0.3770    -2.6170    -0.2140 nh         1 MMY      -0.774300
     15 C15          0.6660    -3.6120    -0.3570 c6         1 MMY       0.189800
     16 C16          0.3480    -4.8170     0.5100 c6         1 MMY       0.138600
     17 O17         -0.9340    -5.3370     0.2380 os         1 MMY      -0.446000
     18 C18         -1.9280    -4.3600     0.4500 c6         1 MMY       0.138600
     19 C19         -1.7140    -3.1360    -0.4220 c6         1 MMY       0.189800
     20 N20          1.1670    -0.9170    -0.1530 nb         1 MMY      -0.299000
     21 C21          1.4540     0.3950    -0.1200 cp         1 MMY       0.292500
     22 C22          2.8810     0.7260    -0.0460 cp         1 MMY      -0.336500
     23 C23          3.8100    -0.1960     0.4430 ca         1 MMY       0.187400
     24 N24          5.0990     0.0480     0.5350 nb         1 MMY      -0.255500
     25 C25          5.5140     1.2540     0.1170 ca         1 MMY       0.391900
     26 N26          6.8200     1.5290     0.2300 nv         1 MMY      -1.062900
     27 N29          4.7230     2.2060    -0.3930 nb         1 MMY      -0.255500
     28 C30          3.4350     1.9330    -0.4640 ca         1 MMY       0.187400
     29 H1          -3.3160    -0.2000    -1.0710 ha         1 MMY       0.146000
     30 H2          -5.7820    -0.2030    -1.0100 ha         1 MMY       0.122000
     31 H3          -6.9810     1.7400    -0.0180 h4         1 MMY       0.021100
     32 H5          -3.4610     3.6550     0.8290 h4         1 MMY       0.016100
     33 H8          -1.4960     3.9020    -0.4340 h1         1 MMY       0.055700
     34 H8A         -1.2600     3.3720     1.2350 h1         1 MMY       0.055700
     35 H9           0.6830     3.2740    -1.0420 hc         1 MMY       0.059200
     36 H9A          1.0180     3.2730     0.6850 hc         1 MMY       0.059200
     37 H15          0.7500    -3.9200    -1.4070 h1         1 MMY       0.065450
     38 H15A         1.6220    -3.1920    -0.0580 h1         1 MMY       0.065450
     39 H16          1.0720    -5.6090     0.3160 h1         1 MMY       0.054200
     40 H16A         0.4320    -4.5330     1.5690 h1         1 MMY       0.054200
     41 H18         -2.8920    -4.8150     0.2150 h1         1 MMY       0.054200
     42 H18A        -1.9460    -4.0520     1.5050 h1         1 MMY       0.054200
     43 H19         -2.4520    -2.3800    -0.1680 h1         1 MMY       0.065450
     44 H19A        -1.8570    -3.3980    -1.4780 h1         1 MMY       0.065450
     45 H23          3.4760    -1.1720     0.7770 h4         1 MMY       0.031100
     46 HN26         7.4640     0.8060     0.4980 hn         1 MMY       0.504500
     47 HN2A         7.1910     2.3700    -0.1750 hn         1 MMY       0.504500
     48 H30          2.8200     2.7090    -0.9040 h4         1 MMY       0.031100
@<TRIPOS>BOND
     1     1     2 ar  
     2     1     6 ar  
     3     1    29 1   
     4     2     3 ar  
     5     2    30 1   
     6     3     4 ar  
     7     3    31 1   
     8     4     5 ar  
     9     5     6 ar  
    10     5    32 1   
    11     6     7 1   
    12     7     8 1   
    13     7    11 1   
    14     8     9 1   
    15     8    33 1   
    16     8    34 1   
    17     9    10 1   
    18     9    35 1   
    19     9    36 1   
    20    10    11 ar  
    21    10    21 ar  
    22    11    12 ar  
    23    12    13 ar  
    24    13    14 1   
    25    13    20 ar  
    26    14    15 1   
    27    14    19 1   
    28    15    16 1   
    29    15    37 1   
    30    15    38 1   
    31    16    17 1   
    32    16    39 1   
    33    16    40 1   
    34    17    18 1   
    35    18    19 1   
    36    18    41 1   
    37    18    42 1   
    38    19    43 1   
    39    19    44 1   
    40    20    21 ar  
    41    21    22 1   
    42    22    23 ar  
    43    22    28 ar  
    44    23    24 ar  
    45    23    45 1   
    46    24    25 ar  
    47    25    26 1   
    48    25    27 ar  
    49    26    46 1   
    50    26    47 1   
    51    27    28 ar  
    52    28    48 1   
@<TRIPOS>SUBSTRUCTURE
     1 MMY         1 TEMP              0 ****  ****    0 ROOT
