@<TRIPOS>MOLECULE
MMY
   48    52     1     0     0
SMALL
No Charge or Current Charge


@<TRIPOS>ATOM
      1 C1          -3.8470     0.8870    -0.8690 ca         1 MMY      -0.099000
      2 C2          -5.2540     0.8540    -0.8770 ca         1 MMY      -0.140000
      3 C3          -5.9720     1.7610    -0.0790 ca         1 MMY       0.304900
      4 N4          -5.3680     2.6840     0.7030 nb         1 MMY      -0.646000
      5 C5          -4.0080     2.7100     0.7050 ca         1 MMY       0.284900
      6 C6          -3.1850     1.8280    -0.0520 ca         1 MMY       0.268000
      7 N7          -1.7600     1.9140    -0.0180 nh         1 MMY      -0.793100
      8 C8          -1.0250     3.2170     0.1530 c5         1 MMY       0.218800
      9 C9           0.5030     2.8180    -0.0620 c5         1 MMY      -0.010100
     10 C10          0.3870     1.3080    -0.1480 ca         1 MMY      -0.303300
     11 C11         -0.8870     0.8420    -0.1220 ca         1 MMY       0.408900
     12 N12         -1.1950    -0.4550    -0.0520 nb         1 MMY      -0.296000
     13 C13         -0.1300    -1.2880    -0.0380 ca         1 MMY       0.434900
     14 N14         -0.3990    -2.6840     0.0240 nh         1 MMY      -0.774300
     15 C15          0.6940    -3.6990    -0.2070 c6         1 MMY       0.189800
     16 C16          0.3520    -5.1080     0.3600 c6         1 MMY       0.138600
     17 O17         -0.9530    -5.5420    -0.0800 os         1 MMY      -0.446000
     18 C18         -2.0010    -4.6520     0.3620 c6         1 MMY       0.138600
     19 C19         -1.7930    -3.2170    -0.2050 c6         1 MMY       0.189800
     20 N20          1.1750    -0.9110    -0.0560 nb         1 MMY      -0.299000
     21 C21          1.4670     0.4060    -0.1060 cp         1 MMY       0.292500
     22 C22          2.9080     0.7830    -0.0440 cp         1 MMY      -0.336500
     23 C23          3.8200     0.0770     0.7770 ca         1 MMY       0.187400
     24 N24          5.1270     0.3960     0.8380 nb         1 MMY      -0.255500
     25 C25          5.5200     1.4180     0.0670 ca         1 MMY       0.391900
     26 N26          6.8350     1.7390     0.1240 nv         1 MMY      -1.062900
     27 N29          4.7680     2.1520    -0.7620 nb         1 MMY      -0.255500
     28 C30          3.4610     1.8320    -0.8180 ca         1 MMY       0.187400
     29 H1          -3.2860     0.2060    -1.5030 ha         1 MMY       0.146000
     30 H2          -5.7870     0.1390    -1.4980 ha         1 MMY       0.122000
     31 H3          -7.0620     1.7530    -0.0710 h4         1 MMY       0.021100
     32 H5          -3.5590     3.4650     1.3490 h4         1 MMY       0.016100
     33 H8          -1.3410     3.9670    -0.5850 h1         1 MMY       0.055700
     34 H8A         -1.1750     3.6320     1.1600 h1         1 MMY       0.055700
     35 H9           0.8850     3.2630    -0.9860 hc         1 MMY       0.059200
     36 H9A          1.1340     3.1560     0.7680 hc         1 MMY       0.059200
     37 H15          0.8920    -3.7930    -1.2850 h1         1 MMY       0.065450
     38 H15A         1.6350    -3.3820     0.2660 h1         1 MMY       0.065450
     39 H16          1.1060    -5.8360     0.0260 h1         1 MMY       0.054200
     40 H16A         0.3720    -5.0810     1.4590 h1         1 MMY       0.054200
     41 H18         -2.9720    -5.0450     0.0290 h1         1 MMY       0.054200
     42 H18A        -2.0080    -4.6200     1.4610 h1         1 MMY       0.054200
     43 H19         -2.5470    -2.5720     0.2700 h1         1 MMY       0.065450
     44 H19A        -2.0130    -3.2300    -1.2830 h1         1 MMY       0.065450
     45 H23          3.4950    -0.7520     1.4040 h4         1 MMY       0.031100
     46 HN26         7.4760     1.0740     0.5520 hn         1 MMY       0.504500
     47 HN2A         7.2220     2.3410    -0.6000 hn         1 MMY       0.504500
     48 H30          2.8570     2.4080    -1.5160 h4         1 MMY       0.031100
@<TRIPOS>BOND
     1     1     2 ar  
     2     1     6 ar  
     3     1    29 1   
     4     2     3 ar  
     5     2    30 1   
     6     3     4 ar  
     7     3    31 1   
     8     4     5 ar  
     9     5     6 ar  
    10     5    32 1   
    11     6     7 1   
    12     7     8 1   
    13     7    11 1   
    14     8     9 1   
    15     8    33 1   
    16     8    34 1   
    17     9    10 1   
    18     9    35 1   
    19     9    36 1   
    20    10    11 ar  
    21    10    21 ar  
    22    11    12 ar  
    23    12    13 ar  
    24    13    14 1   
    25    13    20 ar  
    26    14    15 1   
    27    14    19 1   
    28    15    16 1   
    29    15    37 1   
    30    15    38 1   
    31    16    17 1   
    32    16    39 1   
    33    16    40 1   
    34    17    18 1   
    35    18    19 1   
    36    18    41 1   
    37    18    42 1   
    38    19    43 1   
    39    19    44 1   
    40    20    21 ar  
    41    21    22 1   
    42    22    23 ar  
    43    22    28 ar  
    44    23    24 ar  
    45    23    45 1   
    46    24    25 ar  
    47    25    26 1   
    48    25    27 ar  
    49    26    46 1   
    50    26    47 1   
    51    27    28 ar  
    52    28    48 1   
@<TRIPOS>SUBSTRUCTURE
     1 MMY         1 TEMP              0 ****  ****    0 ROOT
