@<TRIPOS>MOLECULE
MMZ
   13    13     1     0     0
SMALL
bcc


@<TRIPOS>ATOM
      1 N1           0.4980    -1.3920    -0.0690 ns         1 MMZ      -0.362100
      2 C1A          1.8220    -1.0360     0.0310 cc         1 MMZ      -0.126400
      3 C2          -0.2970    -0.3030    -0.0840 cs         1 MMZ       0.511400
      4 S2          -1.9740    -0.2570    -0.1940 s          1 MMZ      -0.658400
      5 N3           0.5450     0.7490     0.0100 n          1 MMZ      -0.267000
      6 C3A          1.8510     0.3110     0.0800 cd         1 MMZ      -0.125400
      7 C4           0.1150     2.1280     0.0190 c3         1 MMZ       0.096300
      8 HN1          0.1470    -2.3340    -0.1210 hn         1 MMZ       0.369500
      9 H1A          2.6160    -1.7600     0.0590 h4         1 MMZ       0.187000
     10 H3A          2.6800     0.9920     0.1560 h4         1 MMZ       0.185000
     11 H41         -0.3470     2.3910    -0.9310 h1         1 MMZ       0.063700
     12 H42         -0.6070     2.2940     0.8160 h1         1 MMZ       0.063700
     13 H43          0.9810     2.7630     0.1810 h1         1 MMZ       0.063700
@<TRIPOS>BOND
     1     1     2 1   
     2     1     3 1   
     3     1     8 1   
     4     2     6 2   
     5     2     9 1   
     6     3     4 2   
     7     3     5 1   
     8     5     6 1   
     9     5     7 1   
    10     6    10 1   
    11     7    11 1   
    12     7    12 1   
    13     7    13 1   
@<TRIPOS>SUBSTRUCTURE
     1 MMZ         1 TEMP              0 ****  ****    0 ROOT
