@<TRIPOS>MOLECULE
MMZ
   13    13     1     0     0
SMALL
No Charge or Current Charge


@<TRIPOS>ATOM
      1 N1           0.5130    -1.3890    -0.0740 ns         1 MMZ      -0.408600
      2 C1A          1.8430    -1.0630     0.0420 cc         1 MMZ      -0.176400
      3 C2          -0.3290    -0.3210    -0.1010 cs         1 MMZ       0.377400
      4 S2          -1.9930    -0.3690    -0.2330 s          1 MMZ      -0.658400
      5 N3           0.5300     0.7610     0.0040 n          1 MMZ      -0.200000
      6 C3A          1.8450     0.3020     0.0910 cd         1 MMZ      -0.175400
      7 C4           0.1260     2.1770     0.0230 c3         1 MMZ       0.096300
      8 HN1          0.1450    -2.3390    -0.1360 hn         1 MMZ       0.483000
      9 H1A          2.6200    -1.8270     0.0760 h4         1 MMZ       0.237000
     10 H3A          2.6650     1.0130     0.1800 h4         1 MMZ       0.235000
     11 H41         -0.4020     2.4210    -0.9070 h1         1 MMZ       0.063700
     12 H42         -0.5410     2.3580     0.8740 h1         1 MMZ       0.063700
     13 H43          1.0090     2.8210     0.1150 h1         1 MMZ       0.063700
@<TRIPOS>BOND
     1     1     2 1   
     2     1     3 1   
     3     1     8 1   
     4     2     6 2   
     5     2     9 1   
     6     3     4 2   
     7     3     5 1   
     8     5     6 1   
     9     5     7 1   
    10     6    10 1   
    11     7    11 1   
    12     7    12 1   
    13     7    13 1   
@<TRIPOS>SUBSTRUCTURE
     1 MMZ         1 TEMP              0 ****  ****    0 ROOT
