@<TRIPOS>MOLECULE
MN0
   43    43     1     0     0
SMALL
No Charge or Current Charge


@<TRIPOS>ATOM
      1 C1          -1.8930    -2.3660    -1.2870 c          1 MN0       0.730000
      2 C2          -1.5020    -1.9990     0.2470 c6         1 MN0       0.269000
      3 O2          -2.5290    -2.5270     1.1470 os         1 MN0      -0.402000
      4 C3          -0.1190    -2.6440     0.5910 c6         1 MN0      -0.140400
      5 C4           1.0350    -1.9190    -0.1350 c6         1 MN0       0.153300
      6 O4           2.2800    -2.5490     0.2060 oh         1 MN0      -0.674000
      7 C5           1.0410    -0.4090     0.2540 c6         1 MN0       0.082700
      8 N5           2.1390     0.3170    -0.4270 ns         1 MN0      -0.498900
      9 C6          -0.3490     0.2040    -0.0890 c6         1 MN0       0.167300
     10 O6          -1.4250    -0.5630     0.5410 os         1 MN0      -0.511000
     11 C7          -0.5050     1.6690     0.4500 c3         1 MN0       0.147300
     12 O7          -0.8670     1.6030     1.8420 oh         1 MN0      -0.723000
     13 C8          -1.5670     2.5040    -0.3310 c3         1 MN0       0.137300
     14 O8          -1.1790     2.6400    -1.7100 oh         1 MN0      -0.614000
     15 C9          -1.7650     3.9350     0.2390 c3         1 MN0       0.123600
     16 O9          -2.6430     4.6910    -0.6160 oh         1 MN0      -0.706000
     17 C10          3.3440     0.6740     0.1450 c          1 MN0       0.606100
     18 O10          3.5780     0.4930     1.3350 o          1 MN0      -0.567100
     19 C11          4.3510     1.3380    -0.8470 c3         1 MN0       0.067600
     20 O11          5.5730     1.8160    -0.2310 oh         1 MN0      -0.623000
     21 C12         -2.3930    -2.3630     2.5730 c3         1 MN0       0.146900
     22 O1B         -1.8750    -1.4580    -2.1120 o          1 MN0      -0.699500
     23 O1A         -2.7450    -3.2390    -1.4400 o          1 MN0      -0.699500
     24 H3           0.0820    -2.6070     1.6680 hc         1 MN0       0.042700
     25 H3A         -0.1330    -3.7060     0.3110 hc         1 MN0       0.042700
     26 H4           0.8710    -1.9920    -1.2210 h1         1 MN0       0.075700
     27 HO4          2.2060    -3.4920    -0.0580 ho         1 MN0       0.434000
     28 H5           1.1860    -0.3340     1.3420 h1         1 MN0       0.098700
     29 HN5          2.0450     0.5050    -1.4190 hn         1 MN0       0.302500
     30 H6          -0.4690     0.2190    -1.1790 h1         1 MN0       0.080700
     31 H7           0.4570     2.1870     0.3400 h1         1 MN0       0.056700
     32 HO7         -1.3270     0.7270     1.9040 ho         1 MN0       0.518000
     33 H8          -2.5310     1.9780    -0.2620 h1         1 MN0       0.111700
     34 HO8         -1.6490     3.4520    -2.0100 ho         1 MN0       0.418000
     35 H9          -2.1900     3.8680     1.2500 h1         1 MN0       0.019700
     36 H9A         -0.7900     4.4340     0.3190 h1         1 MN0       0.019700
     37 HO9         -2.7940     5.5630    -0.1790 ho         1 MN0       0.486000
     38 H11          4.5830     0.5970    -1.6230 h1         1 MN0       0.026700
     39 H12         -3.3230    -2.6640     3.0720 h1         1 MN0       0.012367
     40 H12A        -1.5890    -2.9910     2.9740 h1         1 MN0       0.012367
     41 H12B        -2.1940    -1.3170     2.8400 h1         1 MN0       0.012367
     42 H19          3.8280     2.1690    -1.3380 h1         1 MN0       0.026700
     43 H20          6.1280     2.2070    -0.9420 ho         1 MN0       0.431000
@<TRIPOS>BOND
     1     1     2 1   
     2     1    22 1   
     3     1    23 1   
     4     2     3 1   
     5     2     4 1   
     6     2    10 1   
     7     3    21 1   
     8     4     5 1   
     9     4    24 1   
    10     4    25 1   
    11     5     6 1   
    12     5     7 1   
    13     5    26 1   
    14     6    27 1   
    15     7     8 1   
    16     7     9 1   
    17     7    28 1   
    18     8    17 1   
    19     8    29 1   
    20     9    10 1   
    21     9    11 1   
    22     9    30 1   
    23    11    12 1   
    24    11    13 1   
    25    11    31 1   
    26    12    32 1   
    27    13    14 1   
    28    13    15 1   
    29    13    33 1   
    30    14    34 1   
    31    15    16 1   
    32    15    35 1   
    33    15    36 1   
    34    16    37 1   
    35    17    18 2   
    36    17    19 1   
    37    19    20 1   
    38    19    38 1   
    39    19    42 1   
    40    20    43 1   
    41    21    39 1   
    42    21    40 1   
    43    21    41 1   
@<TRIPOS>SUBSTRUCTURE
     1 MN0         1 TEMP              0 ****  ****    0 ROOT
