@<TRIPOS>MOLECULE
MN0
   43    43     1     0     0
SMALL
bcc


@<TRIPOS>ATOM
      1 C1          -2.0210    -2.0530    -1.2720 c          1 MN0       0.940600
      2 C2          -1.5010    -1.8800     0.1910 c6         1 MN0       0.222600
      3 O2          -2.5110    -2.3350     1.0260 os         1 MN0      -0.355600
      4 C3          -0.1650    -2.5790     0.4580 c6         1 MN0      -0.140400
      5 C4           1.0540    -1.8830    -0.1390 c6         1 MN0       0.130100
      6 O4           2.2540    -2.4260     0.3720 oh         1 MN0      -0.611800
      7 C5           1.0350    -0.4050     0.2280 c6         1 MN0       0.082700
      8 N5           2.1060     0.2990    -0.4340 ns         1 MN0      -0.565900
      9 C6          -0.3170     0.2140    -0.1510 c6         1 MN0       0.144100
     10 O6          -1.3770    -0.4870     0.4580 os         1 MN0      -0.464600
     11 C7          -0.4420     1.6600     0.3280 c3         1 MN0       0.124100
     12 O7          -0.3350     1.7460     1.7300 oh         1 MN0      -0.600800
     13 C8          -1.7340     2.3310    -0.1740 c3         1 MN0       0.114100
     14 O8          -1.8770     2.1920    -1.5690 oh         1 MN0      -0.551800
     15 C9          -1.7740     3.7920     0.2500 c3         1 MN0       0.100400
     16 O9          -3.0040     4.3490    -0.1510 oh         1 MN0      -0.583800
     17 C10          3.2020     0.7800     0.1820 c          1 MN0       0.673100
     18 O10          3.3670     0.7940     1.3870 o          1 MN0      -0.567100
     19 C11          4.2420     1.3150    -0.7900 c3         1 MN0       0.044400
     20 O11          5.2470     1.9620    -0.0680 oh         1 MN0      -0.560800
     21 C12         -2.2910    -2.3080     2.4220 c3         1 MN0       0.123700
     22 O1B         -1.1440    -2.1110    -2.1570 o          1 MN0      -0.804800
     23 O1A         -3.2490    -2.0830    -1.4330 o          1 MN0      -0.804800
     24 H3           0.0040    -2.6260     1.5380 hc         1 MN0       0.042700
     25 H3A         -0.2220    -3.6120     0.1040 hc         1 MN0       0.042700
     26 H4           1.0250    -1.9720    -1.2290 h1         1 MN0       0.075700
     27 HO4          2.3650    -3.3060     0.0010 ho         1 MN0       0.395000
     28 H5           1.1860    -0.3040     1.3040 h1         1 MN0       0.098700
     29 HN5          2.1010     0.2900    -1.4440 hn         1 MN0       0.302500
     30 H6          -0.4120     0.1970    -1.2430 h1         1 MN0       0.080700
     31 H7           0.4090     2.2190    -0.0770 h1         1 MN0       0.056700
     32 HO7         -1.0000     1.1620     2.1120 ho         1 MN0       0.419000
     33 H8          -2.5950     1.8150     0.2650 h1         1 MN0       0.111700
     34 HO8         -1.1730     2.6880    -2.0020 ho         1 MN0       0.379000
     35 H9          -1.6360     3.8560     1.3340 h1         1 MN0       0.019700
     36 H9A         -0.9220     4.3170    -0.2100 h1         1 MN0       0.019700
     37 HO9         -3.0210     5.2650     0.1380 ho         1 MN0       0.387000
     38 H11          4.6240     0.4630    -1.3690 h1         1 MN0       0.026700
     39 H12         -3.2700    -2.3760     2.8960 h1         1 MN0       0.012367
     40 H12A        -1.6930    -3.1550     2.7690 h1         1 MN0       0.012367
     41 H12B        -1.8130    -1.3870     2.7630 h1         1 MN0       0.012367
     42 H19          3.7440     1.9780    -1.5100 h1         1 MN0       0.026700
     43 H20          5.9150     2.2520    -0.6960 ho         1 MN0       0.392000
@<TRIPOS>BOND
     1     1     2 1   
     2     1    22 1   
     3     1    23 1   
     4     2     3 1   
     5     2     4 1   
     6     2    10 1   
     7     3    21 1   
     8     4     5 1   
     9     4    24 1   
    10     4    25 1   
    11     5     6 1   
    12     5     7 1   
    13     5    26 1   
    14     6    27 1   
    15     7     8 1   
    16     7     9 1   
    17     7    28 1   
    18     8    17 1   
    19     8    29 1   
    20     9    10 1   
    21     9    11 1   
    22     9    30 1   
    23    11    12 1   
    24    11    13 1   
    25    11    31 1   
    26    12    32 1   
    27    13    14 1   
    28    13    15 1   
    29    13    33 1   
    30    14    34 1   
    31    15    16 1   
    32    15    35 1   
    33    15    36 1   
    34    16    37 1   
    35    17    18 2   
    36    17    19 1   
    37    19    20 1   
    38    19    38 1   
    39    19    42 1   
    40    20    43 1   
    41    21    39 1   
    42    21    40 1   
    43    21    41 1   
@<TRIPOS>SUBSTRUCTURE
     1 MN0         1 TEMP              0 ****  ****    0 ROOT
