@<TRIPOS>MOLECULE
MN1
   19    19     1     0     0
SMALL
No Charge or Current Charge


@<TRIPOS>ATOM
      1 N1          -0.0280     0.2990    -2.5720 n7         1 MN1      -0.859400
      2 C2          -1.0830    -0.5390    -1.9530 c6         1 MN1       0.155300
      3 C3          -1.2490    -0.2310    -0.4420 c6         1 MN1      -0.052900
      4 C4           0.1030    -0.3760     0.3170 c6         1 MN1      -0.187700
      5 C           -0.0270    -0.0490     1.8240 c          1 MN1       0.721000
      6 O1          -0.3630     1.0790     2.1510 o          1 MN1      -0.739000
      7 O2           0.2140    -0.9400     2.6260 o          1 MN1      -0.739000
      8 C5           1.1950     0.4810    -0.3860 c6         1 MN1      -0.052900
      9 C6           1.2840     0.1510    -1.8990 c6         1 MN1       0.155300
     10 HN1          0.0740     0.0260    -3.5560 hn         1 MN1       0.376000
     11 H21         -0.8210    -1.5990    -2.0840 h1         1 MN1       0.004950
     12 H22         -2.0360    -0.3640    -2.4730 h1         1 MN1       0.004950
     13 H31         -1.9980    -0.9070    -0.0080 hc         1 MN1       0.046200
     14 H32         -1.6410     0.7880    -0.3210 hc         1 MN1       0.046200
     15 H4           0.4110    -1.4290     0.2410 hc         1 MN1       0.019700
     16 H51          0.9730     1.5500    -0.2610 hc         1 MN1       0.046200
     17 H52          2.1710     0.3080     0.0870 hc         1 MN1       0.046200
     18 H61          1.6380    -0.8830    -2.0280 h1         1 MN1       0.004950
     19 H62          2.0150     0.8160    -2.3810 h1         1 MN1       0.004950
@<TRIPOS>BOND
     1     1     2 1   
     2     1     9 1   
     3     1    10 1   
     4     2     3 1   
     5     2    11 1   
     6     2    12 1   
     7     3     4 1   
     8     3    13 1   
     9     3    14 1   
    10     4     5 1   
    11     4     8 1   
    12     4    15 1   
    13     5     6 1   
    14     5     7 1   
    15     8     9 1   
    16     8    16 1   
    17     8    17 1   
    18     9    18 1   
    19     9    19 1   
@<TRIPOS>SUBSTRUCTURE
     1 MN1         1 TEMP              0 ****  ****    0 ROOT
