@<TRIPOS>MOLECULE
MN1
   19    19     1     0     0
SMALL
bcc


@<TRIPOS>ATOM
      1 N1           0.0510     0.3440    -2.5110 n7         1 MN1      -0.804200
      2 C2          -1.0700    -0.4020    -1.9640 c6         1 MN1       0.155300
      3 C3          -1.2460    -0.0790    -0.4870 c6         1 MN1      -0.052900
      4 C4           0.0280    -0.3800     0.2930 c6         1 MN1      -0.187700
      5 C           -0.0530    -0.0580     1.7990 c          1 MN1       0.931600
      6 O1          -1.1460     0.3330     2.2560 o          1 MN1      -0.844300
      7 O2           0.9980    -0.2250     2.4540 o          1 MN1      -0.844300
      8 C5           1.2150     0.3270    -0.3660 c6         1 MN1      -0.052900
      9 C6           1.2960    -0.0020    -1.8490 c6         1 MN1       0.155300
     10 HN1          0.1320     0.1510    -3.5010 hn         1 MN1       0.320800
     11 H21         -0.9390    -1.4920    -2.0760 h1         1 MN1       0.004950
     12 H22         -1.9720    -0.1350    -2.5190 h1         1 MN1       0.004950
     13 H31         -2.0870    -0.6520    -0.0890 hc         1 MN1       0.046200
     14 H32         -1.5070     0.9780    -0.3790 hc         1 MN1       0.046200
     15 H4           0.2190    -1.4610     0.2130 hc         1 MN1       0.019700
     16 H51          1.1110     1.4110    -0.2450 hc         1 MN1       0.046200
     17 H52          2.1450     0.0380     0.1250 hc         1 MN1       0.046200
     18 H61          1.5440    -1.0730    -1.9570 h1         1 MN1       0.004950
     19 H62          2.1110     0.5580    -2.3150 h1         1 MN1       0.004950
@<TRIPOS>BOND
     1     1     2 1   
     2     1     9 1   
     3     1    10 1   
     4     2     3 1   
     5     2    11 1   
     6     2    12 1   
     7     3     4 1   
     8     3    13 1   
     9     3    14 1   
    10     4     5 1   
    11     4     8 1   
    12     4    15 1   
    13     5     6 1   
    14     5     7 1   
    15     8     9 1   
    16     8    16 1   
    17     8    17 1   
    18     9    18 1   
    19     9    19 1   
@<TRIPOS>SUBSTRUCTURE
     1 MN1         1 TEMP              0 ****  ****    0 ROOT
