@<TRIPOS>MOLECULE
MN2
   31    31     1     0     0
SMALL
abcg2


@<TRIPOS>ATOM
      1 C1          -1.0950     0.3760    -0.5120 ca         1 MN2      -0.000300
      2 C2          -2.0010     1.3950    -0.7860 ca         1 MN2      -0.094500
      3 C3          -3.3170     1.3160    -0.3500 ca         1 MN2      -0.084500
      4 C4          -3.7500     0.2130     0.3760 ca         1 MN2      -0.220300
      5 C5          -2.8460    -0.8080     0.6570 ca         1 MN2      -0.084500
      6 C6          -1.5340    -0.7270     0.2190 ca         1 MN2      -0.094500
      7 C7           0.3260     0.4500    -1.0030 c3         1 MN2       0.188100
      8 N8           1.2660     0.0250     0.0120 n7         1 MN2      -0.877400
      9 C9           2.6410     0.0030    -0.4600 c3         1 MN2       0.168800
     10 C10          3.5890    -0.3790     0.6610 c3         1 MN2      -0.213400
     11 C            5.0670    -0.5060     0.2530 c          1 MN2       0.720000
     12 O1           5.3240    -0.5850    -0.9650 o          1 MN2      -0.729000
     13 O2           5.8940    -0.5420     1.1870 o          1 MN2      -0.729000
     14 C11         -5.1700     0.1130     0.8420 c3         1 MN2       0.173900
     15 N12         -6.0150    -0.5700    -0.1820 nz         1 MN2      -0.977000
     16 H2          -1.6750     2.2680    -1.3390 ha         1 MN2       0.151500
     17 H3          -4.0040     2.1260    -0.5670 ha         1 MN2       0.108500
     18 H5          -3.1660    -1.6710     1.2300 ha         1 MN2       0.108500
     19 H6          -0.8370    -1.5200     0.4550 ha         1 MN2       0.151500
     20 H71          0.4330    -0.2220    -1.8620 h1         1 MN2       0.048200
     21 H72          0.5270     1.4620    -1.3870 h1         1 MN2       0.048200
     22 HN8          1.1980     0.6550     0.8030 hn         1 MN2       0.401000
     23 H91          2.7120    -0.7300    -1.2670 h1         1 MN2       0.041200
     24 H92          2.9480     0.9680    -0.8940 h1         1 MN2       0.041200
     25 H101         3.5100     0.3450     1.4800 hc         1 MN2       0.024200
     26 H102         3.2680    -1.3370     1.0870 hc         1 MN2       0.024200
     27 H111        -5.6170     1.0900     1.0110 hx         1 MN2       0.097700
     28 H112        -5.2590    -0.4730     1.7530 hx         1 MN2       0.097700
     29 HN21        -5.6760    -1.5100    -0.3860 hn         1 MN2       0.503667
     30 HN22        -6.0320    -0.0570    -1.0640 hn         1 MN2       0.503667
     31 HN23        -6.9810    -0.6600     0.1320 hn         1 MN2       0.503667
@<TRIPOS>BOND
     1     1     2 ar  
     2     1     6 ar  
     3     1     7 1   
     4     2     3 ar  
     5     2    16 1   
     6     3     4 ar  
     7     3    17 1   
     8     4     5 ar  
     9     4    14 1   
    10     5     6 ar  
    11     5    18 1   
    12     6    19 1   
    13     7     8 1   
    14     7    20 1   
    15     7    21 1   
    16     8     9 1   
    17     8    22 1   
    18     9    10 1   
    19     9    23 1   
    20     9    24 1   
    21    10    11 1   
    22    10    25 1   
    23    10    26 1   
    24    11    12 1   
    25    11    13 1   
    26    14    15 1   
    27    14    27 1   
    28    14    28 1   
    29    15    29 1   
    30    15    30 1   
    31    15    31 1   
@<TRIPOS>SUBSTRUCTURE
     1 MN2         1 TEMP              0 ****  ****    0 ROOT
