@<TRIPOS>MOLECULE
MN2
   31    31     1     0     0
SMALL
No Charge or Current Charge


@<TRIPOS>ATOM
      1 C1          -1.1140     0.0730    -0.5620 ca         1 MN2      -0.000300
      2 C2          -1.8340     1.2780    -0.4360 ca         1 MN2      -0.094500
      3 C3          -3.1500     1.2710     0.0590 ca         1 MN2      -0.084500
      4 C4          -3.7600     0.0590     0.4330 ca         1 MN2      -0.220300
      5 C5          -3.0430    -1.1460     0.3100 ca         1 MN2      -0.084500
      6 C6          -1.7270    -1.1370    -0.1850 ca         1 MN2      -0.094500
      7 C7           0.3110     0.0760    -1.1050 c3         1 MN2       0.188100
      8 N8           1.3000    -0.0440    -0.0130 n7         1 MN2      -0.877400
      9 C9           2.7100    -0.0290    -0.4400 c3         1 MN2       0.168800
     10 C10          3.6210    -0.1400     0.7920 c3         1 MN2      -0.213400
     11 C            5.0790    -0.1240     0.3220 c          1 MN2       0.720000
     12 O1           5.6050    -1.1890     0.0380 o          1 MN2      -0.729000
     13 O2           5.6350     0.9580     0.2060 o          1 MN2      -0.729000
     14 C11         -5.1750     0.0510     0.9620 c3         1 MN2       0.173900
     15 N12         -6.0600    -0.1140    -0.2280 nz         1 MN2      -0.977000
     16 H2          -1.3730     2.2210    -0.7220 ha         1 MN2       0.151500
     17 H3          -3.6940     2.2090     0.1510 ha         1 MN2       0.108500
     18 H5          -3.5020    -2.0890     0.5990 ha         1 MN2       0.108500
     19 H6          -1.1770    -2.0720    -0.2730 ha         1 MN2       0.151500
     20 H71          0.4200    -0.7580    -1.8130 h1         1 MN2       0.048200
     21 H72          0.4770     1.0030    -1.6720 h1         1 MN2       0.048200
     22 HN8          1.1560     0.7410     0.6320 hn         1 MN2       0.401000
     23 H91          2.9160    -0.8690    -1.1190 h1         1 MN2       0.041200
     24 H92          2.9410     0.9020    -0.9770 h1         1 MN2       0.041200
     25 H101         3.4060     0.7380     1.4150 hc         1 MN2       0.024200
     26 H102         3.3790    -1.0970     1.2700 hc         1 MN2       0.024200
     27 H111        -5.4140     0.9900     1.4730 hx         1 MN2       0.097700
     28 H112        -5.3340    -0.7790     1.6590 hx         1 MN2       0.097700
     29 HN21        -5.8680    -0.9850    -0.7410 hn         1 MN2       0.503667
     30 HN22        -5.9410     0.6460    -0.9120 hn         1 MN2       0.503667
     31 HN23        -7.0620    -0.1330     0.0120 hn         1 MN2       0.503667
@<TRIPOS>BOND
     1     1     2 ar  
     2     1     6 ar  
     3     1     7 1   
     4     2     3 ar  
     5     2    16 1   
     6     3     4 ar  
     7     3    17 1   
     8     4     5 ar  
     9     4    14 1   
    10     5     6 ar  
    11     5    18 1   
    12     6    19 1   
    13     7     8 1   
    14     7    20 1   
    15     7    21 1   
    16     8     9 1   
    17     8    22 1   
    18     9    10 1   
    19     9    23 1   
    20     9    24 1   
    21    10    11 1   
    22    10    25 1   
    23    10    26 1   
    24    11    12 1   
    25    11    13 1   
    26    14    15 1   
    27    14    27 1   
    28    14    28 1   
    29    15    29 1   
    30    15    30 1   
    31    15    31 1   
@<TRIPOS>SUBSTRUCTURE
     1 MN2         1 TEMP              0 ****  ****    0 ROOT
