@<TRIPOS>MOLECULE
MN7
   31    31     1     0     0
SMALL
No Charge or Current Charge


@<TRIPOS>ATOM
      1 C1          -0.0300     0.0690    -2.8310 ca         1 MN7      -0.126600
      2 C            0.1690     0.5210    -4.2710 c          1 MN7       0.711600
      3 O1           1.2340     0.2750    -4.8210 o          1 MN7      -0.722500
      4 O2          -0.7430     1.1140    -4.8320 o          1 MN7      -0.722500
      5 C2           0.9930    -0.6190    -2.1380 ca         1 MN7      -0.094000
      6 C3           0.8070    -1.0350    -0.8080 ca         1 MN7      -0.129500
      7 C4          -0.4030    -0.7740    -0.1400 ca         1 MN7      -0.131300
      8 C5          -1.4270    -0.0900    -0.8210 ca         1 MN7      -0.129500
      9 C6          -1.2440     0.3280    -2.1510 ca         1 MN7      -0.094000
     10 C7          -0.6050    -1.2310     1.2990 c3         1 MN7       0.219100
     11 N8          -0.1590    -0.1870     2.2330 n7         1 MN7      -0.863400
     12 C9          -0.3720    -0.4910     3.6600 c3         1 MN7       0.165800
     13 C10          0.1150     0.6680     4.5690 c3         1 MN7      -0.061700
     14 C11         -0.3090     0.4340     6.0360 c3         1 MN7      -0.083100
     15 C12          1.6430     0.9050     4.4690 c3         1 MN7      -0.083100
     16 H2           1.9400    -0.8340    -2.6290 ha         1 MN7       0.125500
     17 H3           1.6080    -1.5620    -0.2930 ha         1 MN7       0.090000
     18 H5          -2.3690     0.1190    -0.3180 ha         1 MN7       0.090000
     19 H6          -2.0530     0.8550    -2.6520 ha         1 MN7       0.125500
     20 H71         -0.0450    -2.1610     1.4690 h1         1 MN7       0.019700
     21 H72         -1.6690    -1.4540     1.4580 h1         1 MN7       0.019700
     22 HN8         -0.6780     0.6670     2.0070 hn         1 MN7       0.411000
     23 H91          0.1590    -1.4130     3.9380 h1         1 MN7       0.019700
     24 H92         -1.4420    -0.6590     3.8440 h1         1 MN7       0.019700
     25 H10         -0.3840     1.5870     4.2350 hc         1 MN7       0.040700
     26 H111        -0.0110     1.2800     6.6670 hc         1 MN7       0.030867
     27 H112        -1.3980     0.3240     6.1120 hc         1 MN7       0.030867
     28 H113         0.1560    -0.4750     6.4370 hc         1 MN7       0.030867
     29 H121         2.1970     0.0080     4.7710 hc         1 MN7       0.030867
     30 H122         1.9370     1.1620     3.4440 hc         1 MN7       0.030867
     31 H123         1.9490     1.7320     5.1200 hc         1 MN7       0.030867
@<TRIPOS>BOND
     1     1     2 1   
     2     1     5 ar  
     3     1     9 ar  
     4     2     3 1   
     5     2     4 1   
     6     5     6 ar  
     7     5    16 1   
     8     6     7 ar  
     9     6    17 1   
    10     7     8 ar  
    11     7    10 1   
    12     8     9 ar  
    13     8    18 1   
    14     9    19 1   
    15    10    11 1   
    16    10    20 1   
    17    10    21 1   
    18    11    12 1   
    19    11    22 1   
    20    12    13 1   
    21    12    23 1   
    22    12    24 1   
    23    13    14 1   
    24    13    15 1   
    25    13    25 1   
    26    14    26 1   
    27    14    27 1   
    28    14    28 1   
    29    15    29 1   
    30    15    30 1   
    31    15    31 1   
@<TRIPOS>SUBSTRUCTURE
     1 MN7         1 TEMP              0 ****  ****    0 ROOT
