@<TRIPOS>MOLECULE
MN7
   31    31     1     0     0
SMALL
bcc


@<TRIPOS>ATOM
      1 C1           0.0070    -0.0260    -2.8070 ca         1 MN7      -0.126600
      2 C            0.3600     0.2360    -4.2640 c          1 MN7       0.922200
      3 O1           1.5590     0.4670    -4.5160 o          1 MN7      -0.827800
      4 O2          -0.5780     0.2000    -5.0840 o          1 MN7      -0.827800
      5 C2           0.9900    -0.0140    -1.8180 ca         1 MN7      -0.112000
      6 C3           0.6740    -0.2510    -0.4890 ca         1 MN7      -0.147500
      7 C4          -0.6400    -0.5120    -0.1040 ca         1 MN7      -0.131300
      8 C5          -1.6240    -0.5170    -1.0890 ca         1 MN7      -0.147500
      9 C6          -1.3050    -0.2810    -2.4190 ca         1 MN7      -0.112000
     10 C7          -0.9850    -0.8090     1.3320 c3         1 MN7       0.219100
     11 N8          -0.2550     0.0380     2.2500 n7         1 MN7      -0.808200
     12 C9          -0.4940    -0.2860     3.6410 c3         1 MN7       0.165800
     13 C10          0.2980     0.6120     4.5870 c3         1 MN7      -0.061700
     14 C11         -0.0450     0.2700     6.0330 c3         1 MN7      -0.083100
     15 C12          1.7980     0.5100     4.3410 c3         1 MN7      -0.083100
     16 H2           2.0160     0.1850    -2.0960 ha         1 MN7       0.143500
     17 H3           1.4520    -0.2300     0.2640 ha         1 MN7       0.108000
     18 H5          -2.6550    -0.7050    -0.8120 ha         1 MN7       0.108000
     19 H6          -2.0880    -0.2900    -3.1660 ha         1 MN7       0.143500
     20 H71         -0.7160    -1.8480     1.5520 h1         1 MN7       0.019700
     21 H72         -2.0780    -0.7510     1.4600 h1         1 MN7       0.019700
     22 HN8         -0.5120     1.0040     2.0840 hn         1 MN7       0.355800
     23 H91         -0.1950    -1.3290     3.8040 h1         1 MN7       0.019700
     24 H92         -1.5630    -0.2310     3.9080 h1         1 MN7       0.019700
     25 H10         -0.0140     1.6480     4.4040 hc         1 MN7       0.040700
     26 H111         0.4720     0.9300     6.7310 hc         1 MN7       0.030867
     27 H112        -1.1160     0.3610     6.2240 hc         1 MN7       0.030867
     28 H113         0.2480    -0.7560     6.2700 hc         1 MN7       0.030867
     29 H121         2.1540    -0.5060     4.5350 hc         1 MN7       0.030867
     30 H122         2.0510     0.7580     3.3110 hc         1 MN7       0.030867
     31 H123         2.3510     1.1850     4.9970 hc         1 MN7       0.030867
@<TRIPOS>BOND
     1     1     2 1   
     2     1     5 ar  
     3     1     9 ar  
     4     2     3 1   
     5     2     4 1   
     6     5     6 ar  
     7     5    16 1   
     8     6     7 ar  
     9     6    17 1   
    10     7     8 ar  
    11     7    10 1   
    12     8     9 ar  
    13     8    18 1   
    14     9    19 1   
    15    10    11 1   
    16    10    20 1   
    17    10    21 1   
    18    11    12 1   
    19    11    22 1   
    20    12    13 1   
    21    12    23 1   
    22    12    24 1   
    23    13    14 1   
    24    13    15 1   
    25    13    25 1   
    26    14    26 1   
    27    14    27 1   
    28    14    28 1   
    29    15    29 1   
    30    15    30 1   
    31    15    31 1   
@<TRIPOS>SUBSTRUCTURE
     1 MN7         1 TEMP              0 ****  ****    0 ROOT
