@<TRIPOS>MOLECULE
MN8
   38    40     1     0     0
SMALL
abcg2


@<TRIPOS>ATOM
      1 C1          -2.2170     0.0150     3.0620 c          1 MN8       0.628500
      2 O1          -2.1770     0.2130     4.2920 o          1 MN8      -0.699500
      3 O2          -3.2310    -0.1910     2.3740 o          1 MN8      -0.699500
      4 C2          -0.8960     0.0260     2.3070 cc         1 MN8       0.242500
      5 C3           0.3640     0.1070     2.8440 cd         1 MN8      -0.163300
      6 C4           0.8500     0.2170     4.2580 c3         1 MN8       0.000600
      7 C5           1.7960    -0.9290     4.6160 c3         1 MN8      -0.078600
      8 C6           1.5120     1.5740     4.5050 c3         1 MN8      -0.078600
      9 S7           1.5200     0.0830     1.5600 ss         1 MN8      -0.220400
     10 C8           0.2410    -0.0290     0.4080 cd         1 MN8       0.392700
     11 N9          -0.9320    -0.0530     0.9360 nc         1 MN8      -0.566000
     12 C10          0.5350    -0.1270    -1.0590 c6         1 MN8       0.156200
     13 N11          0.2610    -1.4770    -1.5320 n7         1 MN8      -0.836400
     14 C12          0.8000    -1.6790    -2.8630 c6         1 MN8       0.205100
     15 C13          0.3070    -0.6240    -3.8180 ca         1 MN8      -0.075300
     16 C14         -0.2120     0.5780    -3.3410 ca         1 MN8      -0.044300
     17 C15         -0.3330     0.8340    -1.8630 c6         1 MN8      -0.030100
     18 C16         -0.6280     1.5470    -4.2540 ca         1 MN8      -0.114000
     19 C17         -0.5320     1.3340    -5.6200 ca         1 MN8      -0.116000
     20 C18         -0.0100     0.1350    -6.0930 ca         1 MN8      -0.126000
     21 C19          0.4060    -0.8320    -5.1930 ca         1 MN8      -0.112000
     22 H4          -0.0340     0.1500     4.8870 hc         1 MN8       0.122700
     23 H51          2.0800    -0.8700     5.6680 hc         1 MN8       0.024533
     24 H52          1.3260    -1.8990     4.4490 hc         1 MN8       0.024533
     25 H53          2.7150    -0.8980     4.0260 hc         1 MN8       0.024533
     26 H61          2.3990     1.7100     3.8820 hc         1 MN8       0.024533
     27 H62          0.8240     2.3920     4.2880 hc         1 MN8       0.024533
     28 H63          1.8210     1.6620     5.5470 hc         1 MN8       0.024533
     29 H10          1.5920     0.1480    -1.2120 h1         1 MN8       0.018700
     30 HN1          0.6770    -2.1540    -0.9050 hn         1 MN8       0.420000
     31 H121         0.4960    -2.6670    -3.2160 h1         1 MN8       0.030200
     32 H122         1.9020    -1.6700    -2.8770 h1         1 MN8       0.030200
     33 H151        -1.3730     0.7140    -1.5490 hc         1 MN8       0.077200
     34 H152        -0.0520     1.8650    -1.6360 hc         1 MN8       0.077200
     35 H16         -1.0300     2.4840    -3.8840 ha         1 MN8       0.111000
     36 H17         -0.8590     2.0990    -6.3120 ha         1 MN8       0.102000
     37 H18          0.0700    -0.0450    -7.1570 ha         1 MN8       0.100000
     38 H19          0.8130    -1.7680    -5.5600 ha         1 MN8       0.101000
@<TRIPOS>BOND
     1     1     2 1   
     2     1     3 1   
     3     1     4 1   
     4     4     5 2   
     5     4    11 1   
     6     5     6 1   
     7     5     9 1   
     8     6     7 1   
     9     6     8 1   
    10     6    22 1   
    11     7    23 1   
    12     7    24 1   
    13     7    25 1   
    14     8    26 1   
    15     8    27 1   
    16     8    28 1   
    17     9    10 1   
    18    10    11 2   
    19    10    12 1   
    20    12    13 1   
    21    12    17 1   
    22    12    29 1   
    23    13    14 1   
    24    13    30 1   
    25    14    15 1   
    26    14    31 1   
    27    14    32 1   
    28    15    16 ar  
    29    15    21 ar  
    30    16    17 1   
    31    16    18 ar  
    32    17    33 1   
    33    17    34 1   
    34    18    19 ar  
    35    18    35 1   
    36    19    20 ar  
    37    19    36 1   
    38    20    21 ar  
    39    20    37 1   
    40    21    38 1   
@<TRIPOS>SUBSTRUCTURE
     1 MN8         1 TEMP              0 ****  ****    0 ROOT
