@<TRIPOS>MOLECULE
MN8
   38    40     1     0     0
SMALL
No Charge or Current Charge


@<TRIPOS>ATOM
      1 C1          -2.1680    -0.2330     3.2450 c          1 MN8       0.628500
      2 O1          -2.1150    -0.0220     4.4500 o          1 MN8      -0.699500
      3 O2          -3.2480    -0.4530     2.7040 o          1 MN8      -0.699500
      4 C2          -0.9020    -0.2100     2.3810 cc         1 MN8       0.242500
      5 C3           0.3900     0.0100     2.8670 cd         1 MN8      -0.163300
      6 C4           0.8920     0.2430     4.2880 c3         1 MN8       0.000600
      7 C5           2.2540    -0.4380     4.5630 c3         1 MN8      -0.078600
      8 C6           0.9470     1.7530     4.6070 c3         1 MN8      -0.078600
      9 S7           1.5540     0.0280     1.5450 ss         1 MN8      -0.220400
     10 C8           0.2340    -0.3170     0.4440 cd         1 MN8       0.392700
     11 N9          -0.9640    -0.4020     1.0060 nc         1 MN8      -0.566000
     12 C10          0.4760    -0.4740    -1.0660 c6         1 MN8       0.156200
     13 N11         -0.1180    -1.7080    -1.6630 n7         1 MN8      -0.836400
     14 C12          0.3270    -1.9250    -3.0570 c6         1 MN8       0.205100
     15 C13          0.1560    -0.6770    -3.9350 ca         1 MN8      -0.075300
     16 C14          0.0120     0.6070    -3.3570 ca         1 MN8      -0.044300
     17 C15         -0.0270     0.7760    -1.8340 c6         1 MN8      -0.030100
     18 C16         -0.1270     1.7360    -4.1870 ca         1 MN8      -0.114000
     19 C17         -0.1130     1.5950    -5.5850 ca         1 MN8      -0.116000
     20 C18          0.0360     0.3230    -6.1600 ca         1 MN8      -0.126000
     21 C19          0.1710    -0.8090    -5.3380 ca         1 MN8      -0.112000
     22 H4           0.2070    -0.2190     5.0060 hc         1 MN8       0.122700
     23 H51          2.5130    -0.3600     5.6260 hc         1 MN8       0.024533
     24 H52          2.2130    -1.5030     4.3030 hc         1 MN8       0.024533
     25 H53          3.0620     0.0300     3.9880 hc         1 MN8       0.024533
     26 H61          1.6570     2.2650     3.9470 hc         1 MN8       0.024533
     27 H62         -0.0390     2.2120     4.4710 hc         1 MN8       0.024533
     28 H63          1.2590     1.9190     5.6450 hc         1 MN8       0.024533
     29 H10          1.5650    -0.5360    -1.2170 h1         1 MN8       0.018700
     30 HN1          0.1560    -2.5240    -1.1020 hn         1 MN8       0.420000
     31 H121        -0.2390    -2.7620    -3.4910 h1         1 MN8       0.030200
     32 H122         1.3900    -2.2090    -3.0570 h1         1 MN8       0.030200
     33 H151        -1.0610     0.9950    -1.5350 hc         1 MN8       0.077200
     34 H152         0.5700     1.6490    -1.5370 hc         1 MN8       0.077200
     35 H16         -0.2480     2.7240    -3.7480 ha         1 MN8       0.111000
     36 H17         -0.2200     2.4710    -6.2210 ha         1 MN8       0.102000
     37 H18          0.0480     0.2130    -7.2420 ha         1 MN8       0.100000
     38 H19          0.2900    -1.7900    -5.7900 ha         1 MN8       0.101000
@<TRIPOS>BOND
     1     1     2 1   
     2     1     3 1   
     3     1     4 1   
     4     4     5 2   
     5     4    11 1   
     6     5     6 1   
     7     5     9 1   
     8     6     7 1   
     9     6     8 1   
    10     6    22 1   
    11     7    23 1   
    12     7    24 1   
    13     7    25 1   
    14     8    26 1   
    15     8    27 1   
    16     8    28 1   
    17     9    10 1   
    18    10    11 2   
    19    10    12 1   
    20    12    13 1   
    21    12    17 1   
    22    12    29 1   
    23    13    14 1   
    24    13    30 1   
    25    14    15 1   
    26    14    31 1   
    27    14    32 1   
    28    15    16 ar  
    29    15    21 ar  
    30    16    17 1   
    31    16    18 ar  
    32    17    33 1   
    33    17    34 1   
    34    18    19 ar  
    35    18    35 1   
    36    19    20 ar  
    37    19    36 1   
    38    20    21 ar  
    39    20    37 1   
    40    21    38 1   
@<TRIPOS>SUBSTRUCTURE
     1 MN8         1 TEMP              0 ****  ****    0 ROOT
