@<TRIPOS>MOLECULE
MN9
   30    29     1     0     0
SMALL
No Charge or Current Charge


@<TRIPOS>ATOM
      1 O1          -3.1090     2.1290    -1.2220 o          1 MN9      -0.504100
      2 C2          -1.5100     0.9320     0.2020 c3         1 MN9      -0.050300
      3 N2          -2.0470    -0.3220    -0.3990 ns         1 MN9      -0.495900
      4 C7          -2.0500    -1.5550     0.2170 c          1 MN9       0.608100
      5 C           -2.3230     2.1570    -0.2780 c          1 MN9       0.562900
      6 O7          -1.5450    -1.7320     1.3170 o          1 MN9      -0.595100
      7 C8          -2.7110    -2.6710    -0.5760 c3         1 MN9      -0.178100
      8 C3           0.0100     1.1700    -0.0450 c3         1 MN9       0.148300
      9 O3           0.4370     2.2240     0.8310 oh         1 MN9      -0.704000
     10 C4           0.9230    -0.0740     0.2060 c3         1 MN9       0.103300
     11 O4           0.8270    -0.4410     1.6000 oh         1 MN9      -0.712000
     12 C5           2.4150     0.1540    -0.1960 c3         1 MN9       0.138300
     13 C6           3.3160    -1.0820     0.0720 c3         1 MN9       0.127600
     14 O6           4.6070    -0.8800    -0.5380 oh         1 MN9      -0.706000
     15 O5           2.5220     0.4520    -1.5980 oh         1 MN9      -0.689000
     16 H81C        -3.7360    -2.3740    -0.8240 hc         1 MN9       0.062367
     17 H82C        -2.2410    -2.7340    -1.5640 hc         1 MN9       0.062367
     18 H83C        -2.6830    -3.6330    -0.0520 hc         1 MN9       0.062367
     19 H2          -2.5050    -0.2670    -1.3040 hn         1 MN9       0.312500
     20 HA          -1.6750     0.8840     1.2860 h1         1 MN9       0.110700
     21 H3           0.1350     1.4700    -1.0970 h1         1 MN9       0.093700
     22 HB           0.7720     1.7560     1.6330 ho         1 MN9       0.503000
     23 H4           0.5570    -0.8970    -0.4240 h1         1 MN9       0.080700
     24 HC          -0.0240    -0.9560     1.6850 ho         1 MN9       0.504000
     25 H5           2.8130     0.9890     0.3980 h1         1 MN9       0.094700
     26 HD           3.4370     0.1480    -1.8180 ho         1 MN9       0.497000
     27 H61C         3.4230    -1.2250     1.1560 h1         1 MN9       0.026700
     28 H62C         2.8370    -1.9810    -0.3390 h1         1 MN9       0.026700
     29 H6           5.1810    -1.6340    -0.2600 ho         1 MN9       0.506000
     30 H           -2.1610     3.0940     0.2990 h4         1 MN9       0.003200
@<TRIPOS>BOND
     1     1     5 2   
     2     2     3 1   
     3     2     5 1   
     4     2     8 1   
     5     2    20 1   
     6     3     4 1   
     7     3    19 1   
     8     4     6 2   
     9     4     7 1   
    10     5    30 1   
    11     7    16 1   
    12     7    17 1   
    13     7    18 1   
    14     8     9 1   
    15     8    10 1   
    16     8    21 1   
    17     9    22 1   
    18    10    11 1   
    19    10    12 1   
    20    10    23 1   
    21    11    24 1   
    22    12    13 1   
    23    12    15 1   
    24    12    25 1   
    25    13    14 1   
    26    13    27 1   
    27    13    28 1   
    28    14    29 1   
    29    15    26 1   
@<TRIPOS>SUBSTRUCTURE
     1 MN9         1 TEMP              0 ****  ****    0 ROOT
