@<TRIPOS>MOLECULE
MN9
   30    29     1     0     0
SMALL
abcg2


@<TRIPOS>ATOM
      1 O1          -3.1730     1.8250    -0.7150 o          1 MN9      -0.504100
      2 C2          -1.3250     0.6560     0.2740 c3         1 MN9      -0.050300
      3 N2          -1.7480    -0.4910    -0.4730 ns         1 MN9      -0.495900
      4 C7          -2.6930    -1.3470    -0.0290 c          1 MN9       0.608100
      5 C           -2.2340     1.8450     0.0370 c          1 MN9       0.562900
      6 O7          -3.1740    -1.2720     1.0920 o          1 MN9      -0.595100
      7 C8          -3.1130    -2.4050    -1.0150 c3         1 MN9      -0.178100
      8 C3           0.1430     1.0050    -0.0590 c3         1 MN9       0.148300
      9 O3           0.5160     2.2250     0.5290 oh         1 MN9      -0.704000
     10 C4           1.0880    -0.1360     0.3420 c3         1 MN9       0.103300
     11 O4           1.0540    -0.3380     1.7390 oh         1 MN9      -0.712000
     12 C5           2.5220     0.0980    -0.1630 c3         1 MN9       0.138300
     13 C6           3.4160    -1.0870     0.1710 c3         1 MN9       0.127600
     14 O6           4.7300    -0.7860    -0.2310 oh         1 MN9      -0.706000
     15 O5           2.5350     0.3880    -1.5400 oh         1 MN9      -0.689000
     16 H81C        -4.1060    -2.1630    -1.3980 hc         1 MN9       0.062367
     17 H82C        -2.4370    -2.4980    -1.8630 hc         1 MN9       0.062367
     18 H83C        -3.1820    -3.3690    -0.5130 hc         1 MN9       0.062367
     19 H2          -1.4920    -0.5340    -1.4480 hn         1 MN9       0.312500
     20 HA          -1.3900     0.4280     1.3450 h1         1 MN9       0.110700
     21 H3           0.2190     1.1590    -1.1390 h1         1 MN9       0.093700
     22 HB           0.4210     2.1580     1.4860 ho         1 MN9       0.503000
     23 H4           0.7130    -1.0620    -0.1080 h1         1 MN9       0.080700
     24 HC           1.6720     0.2630     2.1690 ho         1 MN9       0.504000
     25 H5           2.9250     0.9900     0.3320 h1         1 MN9       0.094700
     26 HD           2.3060    -0.4100    -2.0300 ho         1 MN9       0.497000
     27 H61C         3.3600    -1.2940     1.2450 h1         1 MN9       0.026700
     28 H62C         3.0280    -1.9820    -0.3410 h1         1 MN9       0.026700
     29 H6           5.2990    -1.5090     0.0490 ho         1 MN9       0.506000
     30 H           -1.9910     2.7450     0.6230 h4         1 MN9       0.003200
@<TRIPOS>BOND
     1     1     5 2   
     2     2     3 1   
     3     2     5 1   
     4     2     8 1   
     5     2    20 1   
     6     3     4 1   
     7     3    19 1   
     8     4     6 2   
     9     4     7 1   
    10     5    30 1   
    11     7    16 1   
    12     7    17 1   
    13     7    18 1   
    14     8     9 1   
    15     8    10 1   
    16     8    21 1   
    17     9    22 1   
    18    10    11 1   
    19    10    12 1   
    20    10    23 1   
    21    11    24 1   
    22    12    13 1   
    23    12    15 1   
    24    12    25 1   
    25    13    14 1   
    26    13    27 1   
    27    13    28 1   
    28    14    29 1   
    29    15    26 1   
@<TRIPOS>SUBSTRUCTURE
     1 MN9         1 TEMP              0 ****  ****    0 ROOT
