@<TRIPOS>MOLECULE
MNA
   42    42     1     0     0
SMALL
abcg2


@<TRIPOS>ATOM
      1 C1           2.5740    -1.0960     0.5080 c          1 MNA       0.685000
      2 C2           2.0920     0.3760     0.2670 c6         1 MNA       0.264000
      3 C3           2.1450     0.7730    -1.2020 c6         1 MNA      -0.113400
      4 C4           1.1070     0.0040    -2.0050 c6         1 MNA       0.156300
      5 C5          -0.2770     0.2160    -1.3990 c6         1 MNA       0.072700
      6 C6          -0.2570    -0.0960     0.1060 c6         1 MNA       0.165300
      7 C7          -1.5410     0.3630     0.7980 c3         1 MNA       0.150300
      8 C8          -1.6530    -0.2180     2.2210 c3         1 MNA       0.136300
      9 C9          -2.8410     0.3680     2.9670 c3         1 MNA       0.124600
     10 C11         -3.0290    -1.2640    -3.5370 c3         1 MNA      -0.184100
     11 N5          -1.2590    -0.6150    -2.0530 ns         1 MNA      -0.494900
     12 O1A          1.9680    -1.7670     1.3570 o          1 MNA      -0.703500
     13 O1B          3.5640    -1.4390    -0.1680 o          1 MNA      -0.703500
     14 O2           2.9170     1.2690     0.9490 os         1 MNA      -0.458000
     15 O4           1.0560     0.4220    -3.3490 oh         1 MNA      -0.668000
     16 O6           0.7860     0.5930     0.7530 os         1 MNA      -0.507000
     17 O7          -1.6390     1.7680     0.7860 oh         1 MNA      -0.728000
     18 O8          -1.7190    -1.6260     2.1690 oh         1 MNA      -0.617000
     19 O9          -2.8680    -0.1720     4.2690 oh         1 MNA      -0.708000
     20 O10         -2.4050     1.0170    -3.1240 o          1 MNA      -0.606100
     21 H31          1.9420     1.8460    -1.2890 hc         1 MNA       0.059200
     22 H32          3.1440     0.5860    -1.5980 hc         1 MNA       0.059200
     23 H4           1.3430    -1.0700    -1.9530 h1         1 MNA       0.050700
     24 H5          -0.5720     1.2580    -1.5470 h1         1 MNA       0.102700
     25 H6          -0.1480    -1.1790     0.2400 h1         1 MNA       0.085700
     26 H7          -2.3950    -0.0100     0.2210 h1         1 MNA       0.056700
     27 H8          -0.7380     0.0170     2.7760 h1         1 MNA       0.114700
     28 H91         -2.7540     1.4590     2.9870 h1         1 MNA       0.020700
     29 H92         -3.7630     0.1310     2.4130 h1         1 MNA       0.020700
     30 H111        -3.7860    -0.8380    -4.1890 hc         1 MNA       0.051033
     31 H112        -2.3940    -1.9280    -4.1250 hc         1 MNA       0.051033
     32 H113        -3.5220    -1.8730    -2.7790 hc         1 MNA       0.051033
     33 H121         3.6830     1.8930     2.7040 h1         1 MNA       0.023033
     34 H122         2.1710     0.9930     2.8860 h1         1 MNA       0.023033
     35 H123         3.6830     0.1350     2.5350 h1         1 MNA       0.023033
     36 HN5         -1.1390    -1.6130    -1.9700 hn         1 MNA       0.304500
     37 HO4          1.8770     0.1550    -3.7740 ho         1 MNA       0.437000
     38 HO7         -0.8050     2.1170     1.1220 ho         1 MNA       0.524000
     39 HO8         -2.5620    -1.8770     1.7740 ho         1 MNA       0.415000
     40 HO9         -3.5850     0.2520     4.7480 ho         1 MNA       0.486000
     41 C10         -2.2080    -0.1680    -2.8980 c          1 MNA       0.605100
     42 C12          3.1100     1.0440     2.3310 c3         1 MNA       0.170900
@<TRIPOS>BOND
     1     1     2 1   
     2     1    12 1   
     3     1    13 1   
     4     2     3 1   
     5     2    14 1   
     6     2    16 1   
     7     3     4 1   
     8     3    21 1   
     9     3    22 1   
    10     4     5 1   
    11     4    15 1   
    12     4    23 1   
    13     5     6 1   
    14     5    11 1   
    15     5    24 1   
    16     6     7 1   
    17     6    16 1   
    18     6    25 1   
    19     7     8 1   
    20     7    17 1   
    21     7    26 1   
    22     8     9 1   
    23     8    18 1   
    24     8    27 1   
    25     9    19 1   
    26     9    28 1   
    27     9    29 1   
    28    10    30 1   
    29    10    31 1   
    30    10    32 1   
    31    10    41 1   
    32    11    36 1   
    33    11    41 1   
    34    14    42 1   
    35    15    37 1   
    36    17    38 1   
    37    18    39 1   
    38    19    40 1   
    39    20    41 2   
    40    33    42 1   
    41    34    42 1   
    42    35    42 1   
@<TRIPOS>SUBSTRUCTURE
     1 MNA         1 TEMP              0 ****  ****    0 ROOT
