@<TRIPOS>MOLECULE
MNA
   42    42     1     0     0
SMALL
No Charge or Current Charge


@<TRIPOS>ATOM
      1 C1           2.8120    -1.1630     0.4800 c          1 MNA       0.685000
      2 C2           2.2420     0.3370     0.2180 c6         1 MNA       0.264000
      3 C3           2.2380     0.6290    -1.3080 c6         1 MNA      -0.113400
      4 C4           1.1190    -0.1430    -2.0410 c6         1 MNA       0.156300
      5 C5          -0.2660     0.2060    -1.4210 c6         1 MNA       0.072700
      6 C6          -0.2230    -0.0940     0.1050 c6         1 MNA       0.165300
      7 C7          -1.5050     0.4130     0.8520 c3         1 MNA       0.150300
      8 C8          -1.7760    -0.3380     2.1930 c3         1 MNA       0.136300
      9 C9          -3.0120     0.2040     2.9620 c3         1 MNA       0.124600
     10 C11         -3.2010    -1.0370    -3.6140 c3         1 MNA      -0.184100
     11 N5          -1.3590    -0.5400    -2.0910 ns         1 MNA      -0.494900
     12 O1A          2.0290    -1.9920     0.9300 o          1 MNA      -0.703500
     13 O1B          3.9880    -1.2560     0.8230 o          1 MNA      -0.703500
     14 O2           3.0870     1.3660     0.8090 os         1 MNA      -0.458000
     15 O4           1.1570     0.1740    -3.4410 oh         1 MNA      -0.668000
     16 O6           0.8970     0.6060     0.7350 os         1 MNA      -0.507000
     17 O7          -1.3540     1.8220     1.1040 oh         1 MNA      -0.728000
     18 O8          -2.0010    -1.7370     1.9460 oh         1 MNA      -0.617000
     19 O9          -3.2840    -0.6240     4.1080 oh         1 MNA      -0.708000
     20 O10         -2.2490     1.1610    -3.3280 o          1 MNA      -0.606100
     21 H31          2.1090     1.7070    -1.4750 hc         1 MNA       0.059200
     22 H32          3.2160     0.3640    -1.7310 hc         1 MNA       0.059200
     23 H4           1.2930    -1.2210    -1.9050 h1         1 MNA       0.050700
     24 H5          -0.4400     1.2840    -1.5510 h1         1 MNA       0.102700
     25 H6          -0.1320    -1.1780     0.2530 h1         1 MNA       0.085700
     26 H7          -2.3770     0.2430     0.2050 h1         1 MNA       0.056700
     27 H8          -0.8950    -0.2060     2.8390 h1         1 MNA       0.114700
     28 H91         -2.8180     1.2370     3.2810 h1         1 MNA       0.020700
     29 H92         -3.8800     0.2210     2.2890 h1         1 MNA       0.020700
     30 H111        -3.8920    -0.5900    -4.3370 hc         1 MNA       0.051033
     31 H112        -2.6270    -1.8590    -4.0570 hc         1 MNA       0.051033
     32 H113        -3.7370    -1.5400    -2.8010 hc         1 MNA       0.051033
     33 H121         3.8680     2.2080     2.5570 h1         1 MNA       0.023033
     34 H122         2.1850     1.6650     2.6860 h1         1 MNA       0.023033
     35 H123         3.5070     0.4750     2.6750 h1         1 MNA       0.023033
     36 HN5         -1.4360    -1.5350    -1.9190 hn         1 MNA       0.304500
     37 HO4          2.0130    -0.1590    -3.7880 ho         1 MNA       0.437000
     38 HO7         -0.3680     1.9320     1.1300 ho         1 MNA       0.524000
     39 HO8         -2.5230    -2.0360     2.7250 ho         1 MNA       0.415000
     40 HO9         -4.0300    -0.2050     4.5980 ho         1 MNA       0.486000
     41 C10         -2.2330    -0.0210    -3.0180 c          1 MNA       0.605100
     42 C12          3.1630     1.4250     2.2490 c3         1 MNA       0.170900
@<TRIPOS>BOND
     1     1     2 1   
     2     1    12 1   
     3     1    13 1   
     4     2     3 1   
     5     2    14 1   
     6     2    16 1   
     7     3     4 1   
     8     3    21 1   
     9     3    22 1   
    10     4     5 1   
    11     4    15 1   
    12     4    23 1   
    13     5     6 1   
    14     5    11 1   
    15     5    24 1   
    16     6     7 1   
    17     6    16 1   
    18     6    25 1   
    19     7     8 1   
    20     7    17 1   
    21     7    26 1   
    22     8     9 1   
    23     8    18 1   
    24     8    27 1   
    25     9    19 1   
    26     9    28 1   
    27     9    29 1   
    28    10    30 1   
    29    10    31 1   
    30    10    32 1   
    31    10    41 1   
    32    11    36 1   
    33    11    41 1   
    34    14    42 1   
    35    15    37 1   
    36    17    38 1   
    37    18    39 1   
    38    19    40 1   
    39    20    41 2   
    40    33    42 1   
    41    34    42 1   
    42    35    42 1   
@<TRIPOS>SUBSTRUCTURE
     1 MNA         1 TEMP              0 ****  ****    0 ROOT
