@<TRIPOS>MOLECULE
MNB
   17    17     1     0     0
SMALL
abcg2


@<TRIPOS>ATOM
      1 C6           0.9140    -0.0490    -1.0550 ca         1 MNB      -0.079000
      2 C1           0.5880     0.0340     0.2910 ca         1 MNB      -0.068600
      3 C2          -0.7550    -0.0840     0.6290 ca         1 MNB      -0.142200
      4 C3          -1.7500    -0.2490    -0.3190 ca         1 MNB      -0.077000
      5 C4          -1.4050    -0.3200    -1.6570 ca         1 MNB      -0.157000
      6 C5          -0.0670    -0.2220    -2.0300 ca         1 MNB      -0.073000
      7 S5           0.4570    -0.3010    -3.7080 sh         1 MNB      -0.199800
      8 C10          1.6740     0.3810     1.3110 c          1 MNB       0.721600
      9 O12          2.8020    -0.0850     1.0900 o          1 MNB      -0.689500
     10 O11          1.3100     1.1340     2.2290 o          1 MNB      -0.689500
     11 N7          -1.1590    -0.1130     2.0250 no         1 MNB       0.720200
     12 O9          -2.0420     0.6360     2.3690 o          1 MNB      -0.408500
     13 O8          -0.6280    -0.9230     2.7440 o          1 MNB      -0.408500
     14 HC6          1.9540     0.0430    -1.3410 ha         1 MNB       0.148000
     15 HC3         -2.7870    -0.3450    -0.0270 ha         1 MNB       0.118000
     16 HC4         -2.1790    -0.4560    -2.4010 ha         1 MNB       0.098000
     17 HS5         -0.7480    -0.4500    -4.2680 hs         1 MNB       0.186800
@<TRIPOS>BOND
     1     1     2 ar  
     2     1     6 ar  
     3     1    14 1   
     4     2     3 ar  
     5     2     8 1   
     6     3     4 ar  
     7     3    11 1   
     8     4     5 ar  
     9     4    15 1   
    10     5     6 ar  
    11     5    16 1   
    12     6     7 1   
    13     7    17 1   
    14     8     9 1   
    15     8    10 1   
    16    11    12 1   
    17    11    13 1   
@<TRIPOS>SUBSTRUCTURE
     1 MNB         1 TEMP              0 ****  ****    0 ROOT
