@<TRIPOS>MOLECULE
MNB
   17    17     1     0     0
SMALL
No Charge or Current Charge


@<TRIPOS>ATOM
      1 C6           0.9430     0.0040    -1.0750 ca         1 MNB      -0.079000
      2 C1           0.5970     0.0730     0.2930 ca         1 MNB      -0.068600
      3 C2          -0.7670    -0.0790     0.6660 ca         1 MNB      -0.142200
      4 C3          -1.7470    -0.2690    -0.3330 ca         1 MNB      -0.077000
      5 C4          -1.3800    -0.3250    -1.6870 ca         1 MNB      -0.157000
      6 C5          -0.0350    -0.1950    -2.0650 ca         1 MNB      -0.073000
      7 S5           0.4300    -0.2700    -3.7830 sh         1 MNB      -0.199800
      8 C10          1.6880     0.3450     1.3090 c          1 MNB       0.721600
      9 O12          2.7280    -0.2940     1.2230 o          1 MNB      -0.689500
     10 O11          1.5160     1.2500     2.1140 o          1 MNB      -0.689500
     11 N7          -1.1830    -0.0710     2.1000 no         1 MNB       0.720200
     12 O9          -2.2400     0.5090     2.3870 o          1 MNB      -0.408500
     13 O8          -0.5940    -0.8420     2.8720 o          1 MNB      -0.408500
     14 HC6          1.9840     0.1200    -1.3710 ha         1 MNB       0.148000
     15 HC3         -2.7940    -0.3880    -0.0610 ha         1 MNB       0.118000
     16 HC4         -2.1460    -0.4770    -2.4440 ha         1 MNB       0.098000
     17 HS5         -0.8210    -0.4610    -4.2630 hs         1 MNB       0.186800
@<TRIPOS>BOND
     1     1     2 ar  
     2     1     6 ar  
     3     1    14 1   
     4     2     3 ar  
     5     2     8 1   
     6     3     4 ar  
     7     3    11 1   
     8     4     5 ar  
     9     4    15 1   
    10     5     6 ar  
    11     5    16 1   
    12     6     7 1   
    13     7    17 1   
    14     8     9 1   
    15     8    10 1   
    16    11    12 1   
    17    11    13 1   
@<TRIPOS>SUBSTRUCTURE
     1 MNB         1 TEMP              0 ****  ****    0 ROOT
