@<TRIPOS>MOLECULE
MNC
    6     5     1     0     0
SMALL
bcc


@<TRIPOS>ATOM
      1 C           -1.3970     0.0120     0.0800 c1         1 MNC       0.421800
      2 N           -0.2360    -0.0060     0.0370 n1         1 MNC      -0.841300
      3 C1           1.1770    -0.0280    -0.0180 c3         1 MNC       0.266400
      4 H11          1.5820    -0.0720     0.9910 h1         1 MNC       0.050700
      5 H12          1.5100    -0.8990    -0.5750 h1         1 MNC       0.050700
      6 H13          1.5390     0.8720    -0.5100 h1         1 MNC       0.050700
@<TRIPOS>BOND
     1     1     2 3   
     2     2     3 1   
     3     3     4 1   
     4     3     5 1   
     5     3     6 1   
@<TRIPOS>SUBSTRUCTURE
     1 MNC         1 TEMP              0 ****  ****    0 ROOT
