@<TRIPOS>MOLECULE
MNC
    6     5     1     0     0
SMALL
No Charge or Current Charge


@<TRIPOS>ATOM
      1 C           -1.4330     0.0120     0.0630 c1         1 MNC       0.511000
      2 N           -0.2620    -0.0050     0.0570 n1         1 MNC      -0.930500
      3 C1           1.1880    -0.0280    -0.0150 c3         1 MNC       0.266400
      4 H11          1.6110    -0.0730     0.9980 h1         1 MNC       0.050700
      5 H12          1.5200    -0.9080    -0.5820 h1         1 MNC       0.050700
      6 H13          1.5510     0.8810    -0.5160 h1         1 MNC       0.050700
@<TRIPOS>BOND
     1     1     2 3   
     2     2     3 1   
     3     3     4 1   
     4     3     5 1   
     5     3     6 1   
@<TRIPOS>SUBSTRUCTURE
     1 MNC         1 TEMP              0 ****  ****    0 ROOT
