@<TRIPOS>MOLECULE
MND
   19    18     1     0     0
SMALL
No Charge or Current Charge


@<TRIPOS>ATOM
      1 N            8.9660     2.1440    -1.2500 n8         1 MND      -0.875800
      2 CA           8.3060     1.6810    -2.5260 c3         1 MND       0.028500
      3 CB           7.9750     2.9060    -3.4180 c3         1 MND      -0.130400
      4 CG           6.8400     3.7620    -2.8400 c          1 MND       0.685100
      5 OD1          5.6660     3.4190    -2.8780 o          1 MND      -0.578100
      6 ND2          7.2210     4.9860    -2.3330 ns         1 MND      -0.598900
      7 CE2          6.3010     5.9690    -1.7620 c3         1 MND       0.105300
      8 C            7.0710     0.6640    -2.4300 c          1 MND       0.948600
      9 O            6.7500     0.0410    -3.4370 o          1 MND      -0.831300
     10 OXT          6.5550     0.4460    -1.3360 o          1 MND      -0.831300
     11 H            9.2190     1.3260    -0.6860 hn         1 MND       0.318300
     12 H2           9.8600     2.5940    -1.4700 hn         1 MND       0.318300
     13 HA           9.0930     1.1220    -3.0510 h1         1 MND      -0.005300
     14 HB2          8.8830     3.5130    -3.5260 hc         1 MND       0.043200
     15 HB3          7.6680     2.5400    -4.4040 hc         1 MND       0.043200
     16 HD2          8.2130     5.1910    -2.3410 hn         1 MND       0.295500
     17 HE21         6.8690     6.8450    -1.4250 h1         1 MND       0.022033
     18 HE22         5.5730     6.2780    -2.5230 h1         1 MND       0.022033
     19 HE23         5.7730     5.5270    -0.9070 h1         1 MND       0.022033
@<TRIPOS>BOND
     1     1     2 1   
     2     1    11 1   
     3     1    12 1   
     4     2     3 1   
     5     2     8 1   
     6     2    13 1   
     7     3     4 1   
     8     3    14 1   
     9     3    15 1   
    10     4     5 2   
    11     4     6 1   
    12     6     7 1   
    13     6    16 1   
    14     7    17 1   
    15     7    18 1   
    16     7    19 1   
    17     8     9 1   
    18     8    10 1   
@<TRIPOS>SUBSTRUCTURE
     1 MND         1 TEMP              0 ****  ****    0 ROOT
