@<TRIPOS>MOLECULE
MND
   19    18     1     0     0
SMALL
bcc


@<TRIPOS>ATOM
      1 N            8.3420     2.1830    -1.1390 n8         1 MND      -0.875800
      2 CA           8.2640     1.7060    -2.5220 c3         1 MND       0.028500
      3 CB           7.8870     2.8550    -3.4460 c3         1 MND      -0.130400
      4 CG           6.9150     3.7900    -2.7700 c          1 MND       0.685100
      5 OD1          5.7750     3.4430    -2.4910 o          1 MND      -0.578100
      6 ND2          7.3490     5.0370    -2.5120 ns         1 MND      -0.598900
      7 CE2          6.5230     5.9950    -1.8200 c3         1 MND       0.105300
      8 C            7.3130     0.4860    -2.5410 c          1 MND       0.948600
      9 O            6.4550     0.4060    -3.4400 o          1 MND      -0.831300
     10 OXT          7.6130    -0.3880    -1.7000 o          1 MND      -0.831300
     11 H            8.5570     1.3870    -0.5520 hn         1 MND       0.318300
     12 H2           9.1320     2.8120    -1.0480 hn         1 MND       0.318300
     13 HA           9.2520     1.3410    -2.8580 h1         1 MND      -0.005300
     14 HB2          8.7870     3.3770    -3.7840 hc         1 MND       0.043200
     15 HB3          7.3990     2.4670    -4.3380 hc         1 MND       0.043200
     16 HD2          8.3120     5.2740    -2.6770 hn         1 MND       0.295500
     17 HE21         7.1020     6.8980    -1.6530 h1         1 MND       0.022033
     18 HE22         5.6400     6.2620    -2.4030 h1         1 MND       0.022033
     19 HE23         6.1860     5.6220    -0.8510 h1         1 MND       0.022033
@<TRIPOS>BOND
     1     1     2 1   
     2     1    11 1   
     3     1    12 1   
     4     2     3 1   
     5     2     8 1   
     6     2    13 1   
     7     3     4 1   
     8     3    14 1   
     9     3    15 1   
    10     4     5 2   
    11     4     6 1   
    12     6     7 1   
    13     6    16 1   
    14     7    17 1   
    15     7    18 1   
    16     7    19 1   
    17     8     9 1   
    18     8    10 1   
@<TRIPOS>SUBSTRUCTURE
     1 MND         1 TEMP              0 ****  ****    0 ROOT
