@<TRIPOS>MOLECULE
MNG
   70    75     1     0     0
SMALL
No Charge or Current Charge


@<TRIPOS>ATOM
      1 C1           3.2450    -5.5350     2.0150 ca         1 MNG       0.148100
      2 C2           2.9670    -5.3480     0.6430 ca         1 MNG      -0.129300
      3 C3           1.6280    -5.3210     0.2140 ca         1 MNG      -0.082000
      4 C4           0.5790    -5.4380     1.1330 ca         1 MNG       0.183100
      5 C5          -0.2970    -5.7080     3.5080 c          1 MNG       0.620300
      6 C6          -0.9800    -5.2910     5.9480 ca         1 MNG       0.236100
      7 C7          -1.7910    -4.9790     8.3740 c6         1 MNG       0.220600
      8 C8          -1.2680    -4.6230     9.7890 c6         1 MNG      -0.095400
      9 C9          -0.0660    -5.4970    10.2080 c6         1 MNG       0.193000
     10 C10          1.0900    -5.2590     9.2090 c6         1 MNG      -0.075100
     11 C11          1.6700    -5.5870     6.7800 ca         1 MNG      -0.128000
     12 C12          2.4870    -5.9330     4.4220 c          1 MNG       0.591300
     13 C16          2.1930    -5.6790     2.9570 ca         1 MNG      -0.135600
     14 C17          0.8420    -5.6020     2.5150 ca         1 MNG      -0.228600
     15 C18          0.0240    -5.5560     4.9810 ca         1 MNG      -0.197600
     16 C19         -0.6700    -5.1920     7.3260 ca         1 MNG      -0.190300
     17 C20          0.6720    -5.3570     7.7370 ca         1 MNG       0.006700
     18 C21          1.3670    -5.6850     5.4070 ca         1 MNG      -0.075600
     19 C13          5.6380    -5.5650     1.4880 c6         1 MNG       0.357300
     20 C14          6.0090    -7.0320     1.0470 c6         1 MNG       0.101300
     21 C15          4.8890    -7.6340     0.1160 c6         1 MNG       0.110500
     22 C22          4.5270    -6.6060    -0.9950 c6         1 MNG       0.160300
     23 C23          4.1330    -5.2270    -0.3620 c6         1 MNG       0.224300
     24 C5M          3.8720    -4.1510    -1.4540 c3         1 MNG      -0.073100
     25 C9M         -0.4400    -7.0050    10.2950 c3         1 MNG      -0.125100
     26 O1           4.5580    -5.5480     2.4440 os         1 MNG      -0.343100
     27 O4          -0.6970    -5.3920     0.6560 oh         1 MNG      -0.549100
     28 O5          -1.4290    -5.9490     3.1010 o          1 MNG      -0.550100
     29 O6          -2.2690    -5.0760     5.5740 oh         1 MNG      -0.517100
     30 O7          -2.6980    -3.9610     7.8850 os         1 MNG      -0.477000
     31 O9           0.3550    -5.0940    11.5120 oh         1 MNG      -0.655000
     32 O12          3.5630    -6.3720     4.8130 o          1 MNG      -0.500100
     33 O3           5.2770    -4.7410     0.3630 os         1 MNG      -0.443000
     34 O2           6.2530    -7.8600     2.2130 oh         1 MNG      -0.698000
     35 O8           3.5080    -7.2110    -1.8030 oh         1 MNG      -0.712000
     36 N1           5.1560    -8.9850    -0.5110 n3         1 MNG      -0.754600
     37 H3           1.3850    -5.2140    -0.8390 ha         1 MNG       0.147000
     38 H7          -2.3520    -5.9230     8.4440 h1         1 MNG       0.046700
     39 H81         -2.0750    -4.7350    10.5250 hc         1 MNG       0.068200
     40 H82         -0.9730    -3.5650     9.8080 hc         1 MNG       0.068200
     41 H101         1.5130    -4.2580     9.3750 hc         1 MNG       0.067700
     42 H102         1.9070    -5.9650     9.4130 hc         1 MNG       0.067700
     43 H11          2.7010    -5.6890     7.1130 ha         1 MNG       0.142000
     44 H1           6.5290    -5.1340     1.9710 h2         1 MNG       0.124700
     45 H2           6.9310    -6.9560     0.4520 h1         1 MNG       0.089700
     46 H6           3.9910    -7.7420     0.7410 h1         1 MNG       0.074700
     47 H4           5.4200    -6.4320    -1.6130 h1         1 MNG       0.047700
     48 H5M1         4.7780    -3.9600    -2.0410 hc         1 MNG       0.056367
     49 H5M2         3.5590    -3.2020    -1.0050 hc         1 MNG       0.056367
     50 H5M3         3.0920    -4.4620    -2.1590 hc         1 MNG       0.056367
     51 H1M1         7.2860    -8.9350    -0.7350 h1         1 MNG       0.036700
     52 H1M2         6.3880    -8.3030    -2.1360 h1         1 MNG       0.036700
     53 H1M3         6.4500   -10.0460    -1.8380 h1         1 MNG       0.036700
     54 H2M1         5.0310   -11.0750    -0.1120 h1         1 MNG       0.036700
     55 H2M2         4.1430   -10.0570     1.0360 h1         1 MNG       0.036700
     56 H2M3         5.9200   -10.1550     1.1140 h1         1 MNG       0.036700
     57 H7M1        -4.4800    -4.6730     8.7420 h1         1 MNG       0.041367
     58 H7M2        -3.7070    -3.3280     9.6210 h1         1 MNG       0.041367
     59 H7M3        -4.5550    -3.0190     8.0970 h1         1 MNG       0.041367
     60 H9M1         0.3990    -7.6050    10.6690 hc         1 MNG       0.045700
     61 H9M2        -0.7150    -7.4170     9.3170 hc         1 MNG       0.045700
     62 H9M3        -1.2880    -7.1670    10.9720 hc         1 MNG       0.045700
     63 HO4         -1.2900    -5.5960     1.4240 ho         1 MNG       0.521000
     64 HO6         -2.6860    -4.6210     6.3480 ho         1 MNG       0.504000
     65 HO9          1.0640    -5.7150    11.7860 ho         1 MNG       0.447000
     66 HO2          5.5200    -7.6800     2.8480 ho         1 MNG       0.518000
     67 H12          3.7260    -8.1730    -1.6930 ho         1 MNG       0.536000
     68 C1M          6.3840    -9.0650    -1.3470 c3         1 MNG       0.160600
     69 C2M          5.0590   -10.1230     0.4350 c3         1 MNG       0.160600
     70 C7M         -3.9160    -3.7380     8.6250 c3         1 MNG       0.142900
@<TRIPOS>BOND
     1     1     2 ar  
     2     1    13 ar  
     3     1    26 1   
     4     2     3 ar  
     5     2    23 1   
     6     3     4 ar  
     7     3    37 1   
     8     4    14 ar  
     9     4    27 1   
    10     5    14 1   
    11     5    15 1   
    12     5    28 2   
    13     6    15 ar  
    14     6    16 ar  
    15     6    29 1   
    16     7     8 1   
    17     7    16 1   
    18     7    30 1   
    19     7    38 1   
    20     8     9 1   
    21     8    39 1   
    22     8    40 1   
    23     9    10 1   
    24     9    25 1   
    25     9    31 1   
    26    10    17 1   
    27    10    41 1   
    28    10    42 1   
    29    11    17 ar  
    30    11    18 ar  
    31    11    43 1   
    32    12    13 1   
    33    12    18 1   
    34    12    32 2   
    35    13    14 ar  
    36    15    18 ar  
    37    16    17 ar  
    38    19    20 1   
    39    19    26 1   
    40    19    33 1   
    41    19    44 1   
    42    20    21 1   
    43    20    34 1   
    44    20    45 1   
    45    21    22 1   
    46    21    36 1   
    47    21    46 1   
    48    22    23 1   
    49    22    35 1   
    50    22    47 1   
    51    23    24 1   
    52    23    33 1   
    53    24    48 1   
    54    24    49 1   
    55    24    50 1   
    56    25    60 1   
    57    25    61 1   
    58    25    62 1   
    59    27    63 1   
    60    29    64 1   
    61    30    70 1   
    62    31    65 1   
    63    34    66 1   
    64    35    67 1   
    65    36    68 1   
    66    36    69 1   
    67    51    68 1   
    68    52    68 1   
    69    53    68 1   
    70    54    69 1   
    71    55    69 1   
    72    56    69 1   
    73    57    70 1   
    74    58    70 1   
    75    59    70 1   
@<TRIPOS>SUBSTRUCTURE
     1 MNG         1 TEMP              0 ****  ****    0 ROOT
