@<TRIPOS>MOLECULE
MNG
   70    75     1     0     0
SMALL
bcc


@<TRIPOS>ATOM
      1 C1           3.3200    -5.2770     1.9570 ca         1 MNG       0.148100
      2 C2           3.0030    -5.2460     0.5830 ca         1 MNG      -0.129300
      3 C3           1.6890    -5.2030     0.1950 ca         1 MNG      -0.100000
      4 C4           0.6490    -5.1700     1.1290 ca         1 MNG       0.183100
      5 C5          -0.1610    -5.1560     3.4580 c          1 MNG       0.620300
      6 C6          -0.8810    -5.0700     5.8640 ca         1 MNG       0.236100
      7 C7          -1.6740    -5.1710     8.2610 c6         1 MNG       0.197400
      8 C8          -1.1980    -4.9240     9.6840 c6         1 MNG      -0.095400
      9 C9           0.0740    -5.6970    10.0090 c6         1 MNG       0.169800
     10 C10          1.1730    -5.1950     9.0750 c6         1 MNG      -0.075100
     11 C11          1.7740    -5.2560     6.6600 ca         1 MNG      -0.146000
     12 C12          2.6070    -5.3250     4.3550 c          1 MNG       0.591300
     13 C16          2.3040    -5.2510     2.9130 ca         1 MNG      -0.135600
     14 C17          0.9530    -5.1900     2.4970 ca         1 MNG      -0.228600
     15 C18          0.1340    -5.1510     4.8900 ca         1 MNG      -0.197600
     16 C19         -0.5580    -5.1060     7.2390 ca         1 MNG      -0.190300
     17 C20          0.7720    -5.1910     7.6270 ca         1 MNG       0.006700
     18 C21          1.4690    -5.2410     5.3160 ca         1 MNG      -0.075600
     19 C13          5.6130    -5.4940     1.3820 c6         1 MNG       0.310900
     20 C14          5.8890    -6.9850     1.1330 c6         1 MNG       0.078100
     21 C15          4.7390    -7.6260     0.3520 c6         1 MNG       0.110500
     22 C22          4.4150    -6.7450    -0.8600 c6         1 MNG       0.137100
     23 C23          4.1330    -5.2950    -0.4200 c6         1 MNG       0.201100
     24 C5M          3.9030    -4.3880    -1.6160 c3         1 MNG      -0.073100
     25 C9M         -0.1190    -7.2050     9.8620 c3         1 MNG      -0.125100
     26 O1           4.5980    -5.3290     2.3600 os         1 MNG      -0.319900
     27 O4          -0.5900    -5.1230     0.6510 oh         1 MNG      -0.510100
     28 O5          -1.3180    -5.1350     3.0330 o          1 MNG      -0.550100
     29 O6          -2.1500    -4.9730     5.4860 oh         1 MNG      -0.478100
     30 O7          -2.6750    -4.2320     7.8800 os         1 MNG      -0.430600
     31 O9           0.3830    -5.3750    11.3500 oh         1 MNG      -0.592800
     32 O12          3.7350    -5.4530     4.7870 o          1 MNG      -0.500100
     33 O3           5.3090    -4.8080     0.2220 os         1 MNG      -0.396600
     34 O2           6.2040    -7.6450     2.3290 oh         1 MNG      -0.575800
     35 O8           3.3190    -7.2610    -1.5540 oh         1 MNG      -0.589800
     36 N1           4.9170    -8.9970    -0.0970 n3         1 MNG      -0.754600
     37 H3           1.4230    -5.1840    -0.8540 ha         1 MNG       0.165000
     38 H7          -2.1140    -6.1800     8.2060 h1         1 MNG       0.046700
     39 H81         -1.9830    -5.2080    10.3890 hc         1 MNG       0.068200
     40 H82         -1.0070    -3.8530     9.8140 hc         1 MNG       0.068200
     41 H101         1.4310    -4.1690     9.3600 hc         1 MNG       0.067700
     42 H102         2.0830    -5.7890     9.1970 hc         1 MNG       0.067700
     43 H11          2.8050    -5.3280     6.9780 ha         1 MNG       0.160000
     44 H1           6.4990    -5.0260     1.8140 h2         1 MNG       0.124700
     45 H2           6.7980    -7.0180     0.5230 h1         1 MNG       0.089700
     46 H6           3.8450    -7.6460     0.9880 h1         1 MNG       0.074700
     47 H4           5.3050    -6.6900    -1.5090 h1         1 MNG       0.047700
     48 H5M1         4.7810    -4.4080    -2.2630 hc         1 MNG       0.056367
     49 H5M2         3.7250    -3.3620    -1.2960 hc         1 MNG       0.056367
     50 H5M3         3.0500    -4.7140    -2.2060 hc         1 MNG       0.056367
     51 H1M1         7.0230    -9.3650    -0.0220 h1         1 MNG       0.036700
     52 H1M2         6.4380    -8.5460    -1.4780 h1         1 MNG       0.036700
     53 H1M3         6.1130   -10.2550    -1.2450 h1         1 MNG       0.036700
     54 H2M1         4.4470   -10.9750     0.3590 h1         1 MNG       0.036700
     55 H2M2         3.5820    -9.7740     1.3120 h1         1 MNG       0.036700
     56 H2M3         5.2750   -10.1410     1.6770 h1         1 MNG       0.036700
     57 H7M1        -4.2600    -5.3990     8.5660 h1         1 MNG       0.041367
     58 H7M2        -3.8210    -4.0290     9.6100 h1         1 MNG       0.041367
     59 H7M3        -4.6310    -3.7360     8.0640 h1         1 MNG       0.041367
     60 H9M1         0.7790    -7.7330    10.1920 hc         1 MNG       0.045700
     61 H9M2        -0.3010    -7.5090     8.8300 hc         1 MNG       0.045700
     62 H9M3        -0.9580    -7.5510    10.4680 hc         1 MNG       0.045700
     63 HO4         -1.1900    -5.1180     1.4380 ho         1 MNG       0.482000
     64 HO6         -2.6680    -4.6780     6.2680 ho         1 MNG       0.465000
     65 HO9          1.1600    -5.8810    11.6140 ho         1 MNG       0.408000
     66 HO2          5.4190    -7.6770     2.8870 ho         1 MNG       0.419000
     67 H12          3.4070    -8.2240    -1.4790 ho         1 MNG       0.437000
     68 C1M          6.1860    -9.2960    -0.7290 c3         1 MNG       0.160600
     69 C2M          4.5470   -10.0140     0.8670 c3         1 MNG       0.160600
     70 C7M         -3.9040    -4.3640     8.5740 c3         1 MNG       0.119700
@<TRIPOS>BOND
     1     1     2 ar  
     2     1    13 ar  
     3     1    26 1   
     4     2     3 ar  
     5     2    23 1   
     6     3     4 ar  
     7     3    37 1   
     8     4    14 ar  
     9     4    27 1   
    10     5    14 1   
    11     5    15 1   
    12     5    28 2   
    13     6    15 ar  
    14     6    16 ar  
    15     6    29 1   
    16     7     8 1   
    17     7    16 1   
    18     7    30 1   
    19     7    38 1   
    20     8     9 1   
    21     8    39 1   
    22     8    40 1   
    23     9    10 1   
    24     9    25 1   
    25     9    31 1   
    26    10    17 1   
    27    10    41 1   
    28    10    42 1   
    29    11    17 ar  
    30    11    18 ar  
    31    11    43 1   
    32    12    13 1   
    33    12    18 1   
    34    12    32 2   
    35    13    14 ar  
    36    15    18 ar  
    37    16    17 ar  
    38    19    20 1   
    39    19    26 1   
    40    19    33 1   
    41    19    44 1   
    42    20    21 1   
    43    20    34 1   
    44    20    45 1   
    45    21    22 1   
    46    21    36 1   
    47    21    46 1   
    48    22    23 1   
    49    22    35 1   
    50    22    47 1   
    51    23    24 1   
    52    23    33 1   
    53    24    48 1   
    54    24    49 1   
    55    24    50 1   
    56    25    60 1   
    57    25    61 1   
    58    25    62 1   
    59    27    63 1   
    60    29    64 1   
    61    30    70 1   
    62    31    65 1   
    63    34    66 1   
    64    35    67 1   
    65    36    68 1   
    66    36    69 1   
    67    51    68 1   
    68    52    68 1   
    69    53    68 1   
    70    54    69 1   
    71    55    69 1   
    72    56    69 1   
    73    57    70 1   
    74    58    70 1   
    75    59    70 1   
@<TRIPOS>SUBSTRUCTURE
     1 MNG         1 TEMP              0 ****  ****    0 ROOT
