@<TRIPOS>MOLECULE
MNI
   45    46     1     0     0
SMALL
abcg2


@<TRIPOS>ATOM
      1 O1B         -0.4180     0.3580     3.2660 o          1 MNI      -0.621100
      2 C1B         -0.7840     1.5020     3.5210 c          1 MNI       0.626700
      3 C2B         -0.8840     1.9920     4.9180 ca         1 MNI      -0.215600
      4 C3B         -1.0380     1.0680     5.9510 ca         1 MNI      -0.019500
      5 C4B         -1.1230     1.4600     7.2710 ca         1 MNI      -0.210000
      6 C5B         -1.0240     2.8210     7.6340 ca         1 MNI       0.362000
      7 N5B         -1.0790     3.2160     8.9350 nh         1 MNI      -0.826400
      8 C8B         -1.3560     2.2520     9.9740 c3         1 MNI       0.218100
      9 C9B         -1.0810     4.6230     9.2620 c3         1 MNI       0.218100
     10 C6B         -0.8560     3.7510     6.5870 ca         1 MNI      -0.210000
     11 C7B         -0.7870     3.3380     5.2710 ca         1 MNI      -0.019500
     12 N1B         -1.1370     2.3680     2.5520 ns         1 MNI      -0.506900
     13 C1A         -0.9160     2.1060     1.1480 c3         1 MNI       0.125000
     14 C2A          0.5560     2.1880     0.7530 c5         1 MNI       0.098500
     15 N5A          0.6830     2.1150    -0.7100 n7         1 MNI      -0.841400
     16 C5M          1.1050     3.4440    -1.1510 c5         1 MNI       0.066500
     17 C6A          1.7200     3.4030    -2.5340 c3         1 MNI       0.167600
     18 O6A          0.8030     3.0040    -3.5270 oh         1 MNI      -0.648000
     19 C4A          2.0260     3.9310    -0.0320 c5         1 MNI       0.109300
     20 O4A          2.2850     5.3090    -0.0090 oh         1 MNI      -0.633000
     21 C3A          1.2220     3.5100     1.1960 c5         1 MNI       0.145300
     22 O3A          1.9380     3.4430     2.4000 oh         1 MNI      -0.626000
     23 H3B         -1.1070     0.0130     5.7200 ha         1 MNI       0.118500
     24 H4B         -1.2610     0.6970     8.0230 ha         1 MNI       0.114500
     25 H8B1        -1.3010     2.7440    10.9410 h1         1 MNI       0.037200
     26 H8B2        -0.6250     1.4410     9.9790 h1         1 MNI       0.037200
     27 H8B3        -2.3520     1.8070     9.8820 h1         1 MNI       0.037200
     28 H9B1        -0.1850     5.1260     8.8890 h1         1 MNI       0.037200
     29 H9B2        -1.0900     4.7380    10.3430 h1         1 MNI       0.037200
     30 H9B3        -1.9540     5.1480     8.8620 h1         1 MNI       0.037200
     31 H6B         -0.7660     4.8070     6.7930 ha         1 MNI       0.114500
     32 H7B         -0.6230     4.1000     4.5190 ha         1 MNI       0.118500
     33 HN1B        -1.4990     3.2700     2.8070 hn         1 MNI       0.316500
     34 H1A1        -1.3160     1.1270     0.8780 h1         1 MNI       0.061700
     35 H1A2        -1.4830     2.8500     0.5870 h1         1 MNI       0.061700
     36 H2A          1.0850     1.3450     1.2050 h1         1 MNI       0.072700
     37 HN5A         1.4110     1.4470    -0.9410 hn         1 MNI       0.406000
     38 H5M          0.2270     4.1040    -1.1790 h1         1 MNI       0.092700
     39 H6A1         2.6050     2.7490    -2.5120 h1         1 MNI       0.039200
     40 H6A2         2.0680     4.4010    -2.8080 h1         1 MNI       0.039200
     41 HO6A         0.4220     2.1630    -3.2540 ho         1 MNI       0.454000
     42 H4A          2.9590     3.3450    -0.0690 h1         1 MNI       0.028700
     43 HO4A         2.9760     5.5070    -0.6480 ho         1 MNI       0.447000
     44 H3A          0.4540     4.2770     1.3570 h1         1 MNI       0.090700
     45 HO3A         2.5890     2.7370     2.3290 ho         1 MNI       0.439000
@<TRIPOS>BOND
     1     1     2 2   
     2     2     3 1   
     3     2    12 1   
     4     3     4 ar  
     5     3    11 ar  
     6     4     5 ar  
     7     4    23 1   
     8     5     6 ar  
     9     5    24 1   
    10     6     7 1   
    11     6    10 ar  
    12     7     8 1   
    13     7     9 1   
    14     8    25 1   
    15     8    26 1   
    16     8    27 1   
    17     9    28 1   
    18     9    29 1   
    19     9    30 1   
    20    10    11 ar  
    21    10    31 1   
    22    11    32 1   
    23    12    13 1   
    24    12    33 1   
    25    13    14 1   
    26    13    34 1   
    27    13    35 1   
    28    14    15 1   
    29    14    21 1   
    30    14    36 1   
    31    15    16 1   
    32    15    37 1   
    33    16    17 1   
    34    16    19 1   
    35    16    38 1   
    36    17    18 1   
    37    17    39 1   
    38    17    40 1   
    39    18    41 1   
    40    19    20 1   
    41    19    21 1   
    42    19    42 1   
    43    20    43 1   
    44    21    22 1   
    45    21    44 1   
    46    22    45 1   
@<TRIPOS>SUBSTRUCTURE
     1 MNI         1 TEMP              0 ****  ****    0 ROOT
