@<TRIPOS>MOLECULE
MNI
   45    46     1     0     0
SMALL
No Charge or Current Charge


@<TRIPOS>ATOM
      1 O1B         -0.4780     0.5530     3.2050 o          1 MNI      -0.621100
      2 C1B         -0.8280     1.6740     3.5480 c          1 MNI       0.626700
      3 C2B         -0.9410     2.0690     5.0050 ca         1 MNI      -0.215600
      4 C3B         -0.6380     1.1200     6.0040 ca         1 MNI      -0.019500
      5 C4B         -0.7330     1.4540     7.3650 ca         1 MNI      -0.210000
      6 C5B         -1.1310     2.7410     7.7670 ca         1 MNI       0.362000
      7 N5B         -1.2250     3.0760     9.1420 nh         1 MNI      -0.826400
      8 C8B         -1.5230     2.0500    10.1700 c3         1 MNI       0.218100
      9 C9B         -1.0300     4.4670     9.6160 c3         1 MNI       0.218100
     10 C6B         -1.4320     3.6900     6.7730 ca         1 MNI      -0.210000
     11 C7B         -1.3410     3.3640     5.4090 ca         1 MNI      -0.019500
     12 N1B         -1.1500     2.6370     2.6190 ns         1 MNI      -0.506900
     13 C1A         -1.0350     2.4660     1.1660 c3         1 MNI       0.125000
     14 C2A          0.4210     2.4310     0.6240 c5         1 MNI       0.098500
     15 N5A          0.4570     2.2370    -0.8660 n7         1 MNI      -0.841400
     16 C5M          1.2690     3.3780    -1.4000 c5         1 MNI       0.066500
     17 C6A          1.9080     3.0410    -2.7710 c3         1 MNI       0.167600
     18 O6A          0.8880     2.4820    -3.6020 oh         1 MNI      -0.648000
     19 C4A          2.2700     3.6860    -0.2510 c5         1 MNI       0.109300
     20 O4A          2.9780     4.9220    -0.4070 oh         1 MNI      -0.633000
     21 C3A          1.2460     3.7330     0.9160 c5         1 MNI       0.145300
     22 O3A          1.8930     3.7450     2.1960 oh         1 MNI      -0.626000
     23 H3B         -0.3240     0.1140     5.7300 ha         1 MNI       0.118500
     24 H4B         -0.4820     0.7020     8.1060 ha         1 MNI       0.114500
     25 H8B1        -1.9850     2.5060    11.0550 h1         1 MNI       0.037200
     26 H8B2        -0.6020     1.5390    10.4820 h1         1 MNI       0.037200
     27 H8B3        -2.2260     1.3030     9.7780 h1         1 MNI       0.037200
     28 H9B1        -0.2590     4.9730     9.0200 h1         1 MNI       0.037200
     29 H9B2        -0.7000     4.4800    10.6630 h1         1 MNI       0.037200
     30 H9B3        -1.9670     5.0350     9.5380 h1         1 MNI       0.037200
     31 H6B         -1.7530     4.6890     7.0500 ha         1 MNI       0.114500
     32 H7B         -1.5870     4.1340     4.6820 ha         1 MNI       0.118500
     33 HN1B        -1.4290     3.5410     2.9750 hn         1 MNI       0.316500
     34 H1A1        -1.5390     1.5320     0.8830 h1         1 MNI       0.061700
     35 H1A2        -1.5730     3.2890     0.6770 h1         1 MNI       0.061700
     36 H2A          0.9230     1.5770     1.1010 h1         1 MNI       0.072700
     37 HN5A         0.9590     1.3550    -1.0440 hn         1 MNI       0.406000
     38 H5M          0.6200     4.2540    -1.5530 h1         1 MNI       0.092700
     39 H6A1         2.7190     2.3150    -2.6230 h1         1 MNI       0.039200
     40 H6A2         2.3340     3.9490    -3.2190 h1         1 MNI       0.039200
     41 HO6A         0.2030     2.1860    -2.9560 ho         1 MNI       0.454000
     42 H4A          2.9790     2.8560    -0.1160 h1         1 MNI       0.028700
     43 HO4A         3.7280     4.7550    -1.0190 ho         1 MNI       0.447000
     44 H3A          0.6030     4.6190     0.8090 h1         1 MNI       0.090700
     45 HO3A         2.6020     4.4220     2.1300 ho         1 MNI       0.439000
@<TRIPOS>BOND
     1     1     2 2   
     2     2     3 1   
     3     2    12 1   
     4     3     4 ar  
     5     3    11 ar  
     6     4     5 ar  
     7     4    23 1   
     8     5     6 ar  
     9     5    24 1   
    10     6     7 1   
    11     6    10 ar  
    12     7     8 1   
    13     7     9 1   
    14     8    25 1   
    15     8    26 1   
    16     8    27 1   
    17     9    28 1   
    18     9    29 1   
    19     9    30 1   
    20    10    11 ar  
    21    10    31 1   
    22    11    32 1   
    23    12    13 1   
    24    12    33 1   
    25    13    14 1   
    26    13    34 1   
    27    13    35 1   
    28    14    15 1   
    29    14    21 1   
    30    14    36 1   
    31    15    16 1   
    32    15    37 1   
    33    16    17 1   
    34    16    19 1   
    35    16    38 1   
    36    17    18 1   
    37    17    39 1   
    38    17    40 1   
    39    18    41 1   
    40    19    20 1   
    41    19    21 1   
    42    19    42 1   
    43    20    43 1   
    44    21    22 1   
    45    21    44 1   
    46    22    45 1   
@<TRIPOS>SUBSTRUCTURE
     1 MNI         1 TEMP              0 ****  ****    0 ROOT
