@<TRIPOS>MOLECULE
MNJ
   41    43     1     0     0
SMALL
abcg2


@<TRIPOS>ATOM
      1 CAK          4.3840    -1.4860    -0.6990 ca         1 MNJ      -0.099500
      2 CAG          4.7480    -2.8080    -0.9070 ca         1 MNJ      -0.109000
      3 CAE          3.9060    -3.8370    -0.5070 ca         1 MNJ      -0.102000
      4 CAH          2.6980    -3.5350     0.1080 ca         1 MNJ      -0.109000
      5 CAL          2.3360    -2.2130     0.3190 ca         1 MNJ      -0.099500
      6 CAV          3.1710    -1.1700    -0.0850 cp         1 MNJ      -0.037000
      7 CAW          2.7770     0.2360     0.1280 cp         1 MNJ      -0.054000
      8 CAQ          1.4510     0.6310    -0.0270 ca         1 MNJ      -0.054000
      9 CAP          3.7120     1.2080     0.4840 ca         1 MNJ      -0.053000
     10 CAO          3.3390     2.5280     0.6770 ca         1 MNJ      -0.161000
     11 CAU          2.0170     2.8830     0.5060 ca         1 MNJ       0.228000
     12 FAD          1.6600     4.1530     0.7140 f          1 MNJ      -0.154000
     13 CAY          1.0510     1.9510     0.1570 ca         1 MNJ      -0.202600
     14 CAT         -0.3640     2.3590    -0.0830 c          1 MNJ       0.641700
     15 OAA         -0.6790     3.3410    -0.7120 o          1 MNJ      -0.503100
     16 NAR         -1.2570     1.4870     0.4650 ns         1 MNJ      -0.384300
     17 NAS         -2.5960     1.6430     0.2610 n7         1 MNJ      -0.576300
     18 SAZ         -3.2590     0.5590    -0.8400 sy         1 MNJ       1.126600
     19 OAB         -4.6930     0.7430    -0.7180 o          1 MNJ      -0.512000
     20 OAC         -2.5780     0.7850    -2.0980 o          1 MNJ      -0.512000
     21 CAX         -2.8010    -1.0430    -0.2450 ca         1 MNJ      -0.314500
     22 CAM         -1.7290    -1.7060    -0.8300 ca         1 MNJ      -0.019500
     23 CAI         -1.3510    -2.9420    -0.3250 ca         1 MNJ      -0.131000
     24 CAF         -2.0370    -3.4970     0.7470 ca         1 MNJ      -0.057000
     25 CAJ         -3.1110    -2.8240     1.3170 ca         1 MNJ      -0.131000
     26 CAN         -3.5010    -1.5890     0.8240 ca         1 MNJ      -0.019500
     27 H1           5.0410    -0.6940    -1.0360 ha         1 MNJ       0.113000
     28 H2           5.6890    -3.0350    -1.3910 ha         1 MNJ       0.114500
     29 H3           4.1910    -4.8680    -0.6700 ha         1 MNJ       0.116000
     30 H4           2.0400    -4.3300     0.4330 ha         1 MNJ       0.114500
     31 H5           1.4050    -1.9920     0.8280 ha         1 MNJ       0.113000
     32 H6           0.7170    -0.1010    -0.3430 ha         1 MNJ       0.121000
     33 H7           4.7480     0.9330     0.6340 ha         1 MNJ       0.124000
     34 H8           4.0680     3.2730     0.9680 ha         1 MNJ       0.140000
     35 H9          -0.9490     0.7810     1.1210 hn         1 MNJ       0.323500
     36 H10         -3.1380     1.7500     1.1130 hn         1 MNJ       0.477000
     37 H11         -1.2030    -1.2820    -1.6740 ha         1 MNJ       0.138500
     38 H12         -0.5230    -3.4720    -0.7760 ha         1 MNJ       0.123000
     39 H13         -1.7390    -4.4610     1.1360 ha         1 MNJ       0.119000
     40 H14         -3.6500    -3.2630     2.1460 ha         1 MNJ       0.123000
     41 H15         -4.3410    -1.0700     1.2670 ha         1 MNJ       0.138500
@<TRIPOS>BOND
     1     1     2 ar  
     2     1     6 ar  
     3     1    27 1   
     4     2     3 ar  
     5     2    28 1   
     6     3     4 ar  
     7     3    29 1   
     8     4     5 ar  
     9     4    30 1   
    10     5     6 ar  
    11     5    31 1   
    12     6     7 1   
    13     7     8 ar  
    14     7     9 ar  
    15     8    13 ar  
    16     8    32 1   
    17     9    10 ar  
    18     9    33 1   
    19    10    11 ar  
    20    10    34 1   
    21    11    12 1   
    22    11    13 ar  
    23    13    14 1   
    24    14    15 2   
    25    14    16 1   
    26    16    17 1   
    27    16    35 1   
    28    17    18 1   
    29    17    36 1   
    30    18    19 2   
    31    18    20 2   
    32    18    21 1   
    33    21    22 ar  
    34    21    26 ar  
    35    22    23 ar  
    36    22    37 1   
    37    23    24 ar  
    38    23    38 1   
    39    24    25 ar  
    40    24    39 1   
    41    25    26 ar  
    42    25    40 1   
    43    26    41 1   
@<TRIPOS>SUBSTRUCTURE
     1 MNJ         1 TEMP              0 ****  ****    0 ROOT
