@<TRIPOS>MOLECULE
MNJ
   41    43     1     0     0
SMALL
No Charge or Current Charge


@<TRIPOS>ATOM
      1 CAK          3.8230    -2.1070    -0.0570 ca         1 MNJ      -0.099500
      2 CAG          4.0790    -3.4730     0.1560 ca         1 MNJ      -0.109000
      3 CAE          3.2790    -4.2080     1.0450 ca         1 MNJ      -0.102000
      4 CAH          2.2240    -3.5760     1.7220 ca         1 MNJ      -0.109000
      5 CAL          1.9690    -2.2110     1.5090 ca         1 MNJ      -0.099500
      6 CAV          2.7620    -1.4470     0.6140 cp         1 MNJ      -0.037000
      7 CAW          2.4790     0.0030     0.3730 cp         1 MNJ      -0.054000
      8 CAQ          1.1470     0.4840     0.3400 ca         1 MNJ      -0.054000
      9 CAP          3.5260     0.9280     0.1500 ca         1 MNJ      -0.053000
     10 CAO          3.2460     2.2800    -0.1030 ca         1 MNJ      -0.161000
     11 CAU          1.9200     2.7350    -0.1450 ca         1 MNJ       0.228000
     12 FAD          1.7010     4.0490    -0.3800 f          1 MNJ      -0.154000
     13 CAY          0.8490     1.8450     0.0810 ca         1 MNJ      -0.202600
     14 CAT         -0.5830     2.3140    -0.0010 c          1 MNJ       0.641700
     15 OAA         -0.9340     3.2700    -0.6810 o          1 MNJ      -0.503100
     16 NAR         -1.5040     1.5350     0.6920 ns         1 MNJ      -0.384300
     17 NAS         -2.9410     1.6080     0.5030 n7         1 MNJ      -0.576300
     18 SAZ         -3.8490     0.3550    -0.1790 sy         1 MNJ       1.126600
     19 OAB         -4.6520    -0.2000     0.9150 o          1 MNJ      -0.512000
     20 OAC         -4.4410     0.8880    -1.4110 o          1 MNJ      -0.512000
     21 CAX         -2.5370    -0.8240    -0.5840 ca         1 MNJ      -0.314500
     22 CAM         -1.8060    -0.6790    -1.7830 ca         1 MNJ      -0.019500
     23 CAI         -0.7560    -1.5660    -2.0780 ca         1 MNJ      -0.131000
     24 CAF         -0.4320    -2.6010    -1.1840 ca         1 MNJ      -0.057000
     25 CAJ         -1.1610    -2.7510     0.0070 ca         1 MNJ      -0.131000
     26 CAN         -2.2100    -1.8660     0.3120 ca         1 MNJ      -0.019500
     27 H1           4.4440    -1.5600    -0.7620 ha         1 MNJ       0.113000
     28 H2           4.8950    -3.9610    -0.3720 ha         1 MNJ       0.114500
     29 H3           3.4760    -5.2660     1.2090 ha         1 MNJ       0.116000
     30 H4           1.6050    -4.1430     2.4140 ha         1 MNJ       0.114500
     31 H5           1.1540    -1.7390     2.0510 ha         1 MNJ       0.113000
     32 H6           0.3430    -0.2340     0.4690 ha         1 MNJ       0.121000
     33 H7           4.5610     0.5980     0.1810 ha         1 MNJ       0.124000
     34 H8           4.0600     2.9810    -0.2690 ha         1 MNJ       0.140000
     35 H9          -1.0980     0.7920     1.2580 hn         1 MNJ       0.323500
     36 H10         -3.4770     1.9160     1.3200 hn         1 MNJ       0.477000
     37 H11         -2.0390     0.1260    -2.4790 ha         1 MNJ       0.138500
     38 H12         -0.1890    -1.4470    -2.9980 ha         1 MNJ       0.123000
     39 H13          0.3860    -3.2820    -1.4110 ha         1 MNJ       0.119000
     40 H14         -0.9090    -3.5510     0.7000 ha         1 MNJ       0.123000
     41 H15         -2.7580    -1.9900     1.2450 ha         1 MNJ       0.138500
@<TRIPOS>BOND
     1     1     2 ar  
     2     1     6 ar  
     3     1    27 1   
     4     2     3 ar  
     5     2    28 1   
     6     3     4 ar  
     7     3    29 1   
     8     4     5 ar  
     9     4    30 1   
    10     5     6 ar  
    11     5    31 1   
    12     6     7 1   
    13     7     8 ar  
    14     7     9 ar  
    15     8    13 ar  
    16     8    32 1   
    17     9    10 ar  
    18     9    33 1   
    19    10    11 ar  
    20    10    34 1   
    21    11    12 1   
    22    11    13 ar  
    23    13    14 1   
    24    14    15 2   
    25    14    16 1   
    26    16    17 1   
    27    16    35 1   
    28    17    18 1   
    29    17    36 1   
    30    18    19 2   
    31    18    20 2   
    32    18    21 1   
    33    21    22 ar  
    34    21    26 ar  
    35    22    23 ar  
    36    22    37 1   
    37    23    24 ar  
    38    23    38 1   
    39    24    25 ar  
    40    24    39 1   
    41    25    26 ar  
    42    25    40 1   
    43    26    41 1   
@<TRIPOS>SUBSTRUCTURE
     1 MNJ         1 TEMP              0 ****  ****    0 ROOT
