@<TRIPOS>MOLECULE
MNK
   36    37     1     0     0
SMALL
No Charge or Current Charge


@<TRIPOS>ATOM
      1 C1           1.5790     1.2730    -0.0290 cc         1 MNK       0.029900
      2 O1           1.8650     2.6070    -0.0510 oh         1 MNK      -0.538100
      3 C2           2.7680     0.5240    -0.4990 c          1 MNK       0.475500
      4 O2           3.6980     1.1380    -1.0340 o          1 MNK      -0.640100
      5 C3           3.0260    -0.8340     0.0180 cc         1 MNK       0.045900
      6 O3           4.3530    -1.1230     0.0150 oh         1 MNK      -0.530100
      7 C4           2.1260    -1.8480     0.1960 cd         1 MNK      -0.166000
      8 C5           0.6890    -1.7800     0.0830 cd         1 MNK      -0.056200
      9 C6          -0.1540    -0.5760     0.0240 cd         1 MNK      -0.034200
     10 C7           0.2700     0.8290     0.1260 cd         1 MNK      -0.040200
     11 C8           0.0250    -3.1550     0.1190 c3         1 MNK      -0.059900
     12 C9          -1.6680    -0.8640    -0.0280 c6         1 MNK      -0.039200
     13 C10         -2.5760     0.3520    -0.2990 c6         1 MNK      -0.026500
     14 C11         -2.1860     1.4680     0.6730 c6         1 MNK      -0.070400
     15 C12         -0.7660     1.9450     0.3410 c6         1 MNK      -0.040200
     16 C13         -4.0670    -0.0130    -0.2440 c2         1 MNK      -0.113400
     17 C14         -4.7950    -0.0990    -1.3700 c2         1 MNK      -0.316000
     18 C15         -4.6720    -0.2740     1.1290 c3         1 MNK      -0.056900
     19 H4           2.5720    -2.8210     0.3790 ha         1 MNK       0.195000
     20 H8           0.7410    -3.9740     0.2510 hc         1 MNK       0.047033
     21 H8A         -0.6870    -3.2410     0.9490 hc         1 MNK       0.047033
     22 H8B         -0.5070    -3.3660    -0.8160 hc         1 MNK       0.047033
     23 H9          -1.8960    -1.5970    -0.8130 hc         1 MNK       0.054700
     24 H9A         -1.9740    -1.3250     0.9200 hc         1 MNK       0.054700
     25 H10         -2.3550     0.7030    -1.3180 hc         1 MNK       0.056700
     26 H11         -2.8880     2.3100     0.5950 hc         1 MNK       0.048700
     27 H11A        -2.2270     1.1110     1.7120 hc         1 MNK       0.048700
     28 H12         -0.4440     2.6170     1.1490 hc         1 MNK       0.064700
     29 H12A        -0.8160     2.5710    -0.5610 hc         1 MNK       0.064700
     30 H14         -5.8540    -0.3570    -1.3490 ha         1 MNK       0.164500
     31 H14A        -4.3620     0.0850    -2.3540 ha         1 MNK       0.164500
     32 H15         -4.6340     0.6200     1.7620 hc         1 MNK       0.039700
     33 H15A        -5.7270    -0.5660     1.0530 hc         1 MNK       0.039700
     34 H15B        -4.1530    -1.0820     1.6550 hc         1 MNK       0.039700
     35 H17          2.7850     2.6540    -0.4160 ho         1 MNK       0.500000
     36 H18          4.7810    -0.3140    -0.3610 ho         1 MNK       0.497000
@<TRIPOS>BOND
     1     1     2 1   
     2     1     3 1   
     3     1    10 2   
     4     2    35 1   
     5     3     4 2   
     6     3     5 1   
     7     5     6 1   
     8     5     7 2   
     9     6    36 1   
    10     7     8 1   
    11     7    19 1   
    12     8     9 2   
    13     8    11 1   
    14     9    10 1   
    15     9    12 1   
    16    10    15 1   
    17    11    20 1   
    18    11    21 1   
    19    11    22 1   
    20    12    13 1   
    21    12    23 1   
    22    12    24 1   
    23    13    14 1   
    24    13    16 1   
    25    13    25 1   
    26    14    15 1   
    27    14    26 1   
    28    14    27 1   
    29    15    28 1   
    30    15    29 1   
    31    16    17 2   
    32    16    18 1   
    33    17    30 1   
    34    17    31 1   
    35    18    32 1   
    36    18    33 1   
    37    18    34 1   
@<TRIPOS>SUBSTRUCTURE
     1 MNK         1 TEMP              0 ****  ****    0 ROOT
