@<TRIPOS>MOLECULE
MNK
   36    37     1     0     0
SMALL
abcg2


@<TRIPOS>ATOM
      1 C1           1.5650     1.2560    -0.1150 cc         1 MNK       0.029900
      2 O1           1.7260     2.5820    -0.1970 oh         1 MNK      -0.538100
      3 C2           2.8350     0.5910    -0.1690 c          1 MNK       0.475500
      4 O2           3.8650     1.3010    -0.2850 o          1 MNK      -0.640100
      5 C3           2.9950    -0.8230    -0.0710 cc         1 MNK       0.045900
      6 O3           4.2670    -1.2320    -0.1140 oh         1 MNK      -0.530100
      7 C4           2.0280    -1.7820     0.0750 cd         1 MNK      -0.166000
      8 C5           0.6300    -1.7060     0.1090 cd         1 MNK      -0.056200
      9 C6          -0.1740    -0.5620     0.0320 cd         1 MNK      -0.034200
     10 C7           0.2600     0.7860    -0.0070 cd         1 MNK      -0.040200
     11 C8          -0.0420    -3.0520     0.2540 c3         1 MNK      -0.059900
     12 C9          -1.6660    -0.8540     0.0170 c6         1 MNK      -0.039200
     13 C10         -2.5800     0.3020    -0.3610 c6         1 MNK      -0.026500
     14 C11         -2.1580     1.5080     0.4610 c6         1 MNK      -0.070400
     15 C12         -0.7600     1.9110     0.0440 c6         1 MNK      -0.040200
     16 C13         -4.0380    -0.0440    -0.2020 c2         1 MNK      -0.113400
     17 C14         -4.8920     0.1470    -1.2070 c2         1 MNK      -0.316000
     18 C15         -4.4960    -0.5840     1.1230 c3         1 MNK      -0.056900
     19 H4           2.4310    -2.7870     0.1320 ha         1 MNK       0.195000
     20 H8           0.6880    -3.8280     0.4710 hc         1 MNK       0.047033
     21 H8A         -0.7770    -3.0630     1.0600 hc         1 MNK       0.047033
     22 H8B         -0.5670    -3.3460    -0.6580 hc         1 MNK       0.047033
     23 H9          -1.8480    -1.6750    -0.6790 hc         1 MNK       0.054700
     24 H9A         -1.9490    -1.2350     1.0040 hc         1 MNK       0.054700
     25 H10         -2.4060     0.5460    -1.4150 hc         1 MNK       0.056700
     26 H11         -2.8380     2.3490     0.3100 hc         1 MNK       0.048700
     27 H11A        -2.1820     1.2660     1.5280 hc         1 MNK       0.048700
     28 H12         -0.3970     2.6910     0.7150 hc         1 MNK       0.064700
     29 H12A        -0.8060     2.3820    -0.9450 hc         1 MNK       0.064700
     30 H14         -5.9510    -0.0540    -1.1010 ha         1 MNK       0.164500
     31 H14A        -4.5610     0.5200    -2.1690 ha         1 MNK       0.164500
     32 H15         -4.0190    -0.0710     1.9600 hc         1 MNK       0.039700
     33 H15A        -5.5750    -0.4880     1.2400 hc         1 MNK       0.039700
     34 H15B        -4.2480    -1.6430     1.2290 hc         1 MNK       0.039700
     35 H17          2.6920     2.7240    -0.2540 ho         1 MNK       0.500000
     36 H18          4.8170    -0.4350    -0.2080 ho         1 MNK       0.497000
@<TRIPOS>BOND
     1     1     2 1   
     2     1     3 1   
     3     1    10 2   
     4     2    35 1   
     5     3     4 2   
     6     3     5 1   
     7     5     6 1   
     8     5     7 2   
     9     6    36 1   
    10     7     8 1   
    11     7    19 1   
    12     8     9 2   
    13     8    11 1   
    14     9    10 1   
    15     9    12 1   
    16    10    15 1   
    17    11    20 1   
    18    11    21 1   
    19    11    22 1   
    20    12    13 1   
    21    12    23 1   
    22    12    24 1   
    23    13    14 1   
    24    13    16 1   
    25    13    25 1   
    26    14    15 1   
    27    14    26 1   
    28    14    27 1   
    29    15    28 1   
    30    15    29 1   
    31    16    17 2   
    32    16    18 1   
    33    17    30 1   
    34    17    31 1   
    35    18    32 1   
    36    18    33 1   
    37    18    34 1   
@<TRIPOS>SUBSTRUCTURE
     1 MNK         1 TEMP              0 ****  ****    0 ROOT
