@<TRIPOS>MOLECULE
MNL
   27    26     1     0     0
SMALL
bcc


@<TRIPOS>ATOM
      1 N            9.0520    39.2430    15.0850 n7         1 MNL      -0.802200
      2 CA           7.6230    39.2250    14.7950 c3         1 MNL       0.022500
      3 C            6.8020    38.2760    15.7200 c          1 MNL       0.905600
      4 O            5.6810    37.9070    15.3140 o          1 MNL      -0.840300
      5 OXT          7.3120    38.0110    16.8290 o          1 MNL      -0.840300
      6 CB           7.3460    38.9990    13.3100 c3         1 MNL      -0.047400
      7 CG           8.0850    39.9200    12.3360 c3         1 MNL      -0.056700
      8 CD           7.7070    39.5420    10.9000 c3         1 MNL      -0.077400
      9 CE           8.5400    40.2220     9.8220 c3         1 MNL      -0.084100
     10 CM1          9.7410    38.0110    14.7510 c3         1 MNL       0.156100
     11 CM4          7.8000    41.3920    12.6210 c3         1 MNL      -0.076100
     12 H            9.1390    39.3750    16.0850 hn         1 MNL       0.356800
     13 HA           7.2560    40.2320    15.0410 h1         1 MNL       0.035700
     14 HB2          7.5670    37.9590    13.0440 hc         1 MNL       0.039200
     15 HB3          6.2720    39.1160    13.1490 hc         1 MNL       0.039200
     16 HG           9.1630    39.7580    12.4470 hc         1 MNL       0.048700
     17 HD2          7.8080    38.4580    10.7890 hc         1 MNL       0.031700
     18 HD3          6.6460    39.7630    10.7410 hc         1 MNL       0.031700
     19 HE1          8.2610    39.8680     8.8280 hc         1 MNL       0.019033
     20 HE2          8.4150    41.3050     9.8250 hc         1 MNL       0.019033
     21 HE3          9.6030    40.0140     9.9570 hc         1 MNL       0.019033
     22 HM11        10.7430    38.0330    15.1810 h1         1 MNL       0.010700
     23 HM12         9.2500    37.0970    15.1100 h1         1 MNL       0.010700
     24 HM13         9.8640    37.9140    13.6710 h1         1 MNL       0.010700
     25 HM41         8.2920    42.0480    11.9020 hc         1 MNL       0.022367
     26 HM42         6.7260    41.5960    12.5730 hc         1 MNL       0.022367
     27 HM43         8.1510    41.6830    13.6110 hc         1 MNL       0.022367
@<TRIPOS>BOND
     1     1     2 1   
     2     1    10 1   
     3     1    12 1   
     4     2     3 1   
     5     2     6 1   
     6     2    13 1   
     7     3     4 1   
     8     3     5 1   
     9     6     7 1   
    10     6    14 1   
    11     6    15 1   
    12     7     8 1   
    13     7    11 1   
    14     7    16 1   
    15     8     9 1   
    16     8    17 1   
    17     8    18 1   
    18     9    19 1   
    19     9    20 1   
    20     9    21 1   
    21    10    22 1   
    22    10    23 1   
    23    10    24 1   
    24    11    25 1   
    25    11    26 1   
    26    11    27 1   
@<TRIPOS>SUBSTRUCTURE
     1 MNL         1 TEMP              0 ****  ****    0 ROOT
