@<TRIPOS>MOLECULE
MNL
   27    26     1     0     0
SMALL
No Charge or Current Charge


@<TRIPOS>ATOM
      1 N            9.1860    39.0720    15.0650 n7         1 MNL      -0.857400
      2 CA           7.7020    39.2210    14.8240 c3         1 MNL       0.022500
      3 C            6.7980    38.3330    15.7790 c          1 MNL       0.695000
      4 O            6.2290    37.3430    15.3340 o          1 MNL      -0.735000
      5 OXT          6.6920    38.6830    16.9480 o          1 MNL      -0.735000
      6 CB           7.3380    39.0430    13.3130 c3         1 MNL      -0.047400
      7 CG           8.0530    39.9970    12.3070 c3         1 MNL      -0.056700
      8 CD           7.7220    39.5820    10.8440 c3         1 MNL      -0.077400
      9 CE           8.5190    40.3310     9.7540 c3         1 MNL      -0.084100
     10 CM1          9.7610    37.7330    14.8310 c3         1 MNL       0.156100
     11 CM4          7.7220    41.4890    12.5770 c3         1 MNL      -0.076100
     12 H            9.3610    39.3090    16.0510 hn         1 MNL       0.412000
     13 HA           7.4270    40.2500    15.0850 h1         1 MNL       0.035700
     14 HB2          7.5380    38.0050    13.0210 hc         1 MNL       0.039200
     15 HB3          6.2550    39.1810    13.2030 hc         1 MNL       0.039200
     16 HG           9.1340    39.8710    12.4380 hc         1 MNL       0.048700
     17 HD2          7.9240    38.5100    10.7260 hc         1 MNL       0.031700
     18 HD3          6.6490    39.7180    10.6580 hc         1 MNL       0.031700
     19 HE1          8.3160    39.8930     8.7700 hc         1 MNL       0.019033
     20 HE2          8.2390    41.3900     9.7120 hc         1 MNL       0.019033
     21 HE3          9.5970    40.2610     9.9430 hc         1 MNL       0.019033
     22 HM11        10.8330    37.7330    15.0680 h1         1 MNL       0.010700
     23 HM12         9.2740    36.9800    15.4650 h1         1 MNL       0.010700
     24 HM13         9.6490    37.4300    13.7820 h1         1 MNL       0.010700
     25 HM41         8.2670    42.1480    11.8930 hc         1 MNL       0.022367
     26 HM42         6.6480    41.6790    12.4560 hc         1 MNL       0.022367
     27 HM43         8.0100    41.7820    13.5930 hc         1 MNL       0.022367
@<TRIPOS>BOND
     1     1     2 1   
     2     1    10 1   
     3     1    12 1   
     4     2     3 1   
     5     2     6 1   
     6     2    13 1   
     7     3     4 1   
     8     3     5 1   
     9     6     7 1   
    10     6    14 1   
    11     6    15 1   
    12     7     8 1   
    13     7    11 1   
    14     7    16 1   
    15     8     9 1   
    16     8    17 1   
    17     8    18 1   
    18     9    19 1   
    19     9    20 1   
    20     9    21 1   
    21    10    22 1   
    22    10    23 1   
    23    10    24 1   
    24    11    25 1   
    25    11    26 1   
    26    11    27 1   
@<TRIPOS>SUBSTRUCTURE
     1 MNL         1 TEMP              0 ****  ****    0 ROOT
