@<TRIPOS>MOLECULE
MNM
   24    24     1     0     0
SMALL
No Charge or Current Charge


@<TRIPOS>ATOM
      1 C1          -1.3670     0.5550    -0.5500 c6         1 MNM       0.148300
      2 C2          -1.6380    -0.9840    -0.3890 c6         1 MNM       0.365500
      3 C3          -0.0650     0.9720     0.2000 c6         1 MNM       0.180300
      4 O4          -2.4870     1.3380    -0.0770 oh         1 MNM      -0.654000
      5 O5          -1.9460    -1.3220     0.9500 oh         1 MNM      -0.730000
      6 N6          -0.4740    -1.8000    -0.7260 n7         1 MNM      -0.910400
      7 O7           0.1930     2.3700    -0.0300 oh         1 MNM      -0.727000
      8 C8           1.1360     0.0930    -0.2500 c6         1 MNM      -0.061700
      9 C9           2.4480     0.4780     0.4960 c3         1 MNM       0.167600
     10 C10          0.7870    -1.4060    -0.0350 c6         1 MNM       0.173800
     11 O11          3.5740    -0.2880     0.0440 oh         1 MNM      -0.668000
     12 HC1         -1.2120     0.7470    -1.6220 h1         1 MNM       0.057700
     13 HC2         -2.4730    -1.2740    -1.0480 h2         1 MNM       0.041700
     14 HC3         -0.2230     0.8010     1.2770 h1         1 MNM       0.054700
     15 HO4         -2.8360     0.8410     0.6990 ho         1 MNM       0.447000
     16 HO5         -2.4130    -2.1850     0.9090 ho         1 MNM       0.495000
     17 HN6         -0.6820    -2.7810    -0.5130 hn         1 MNM       0.423000
     18 HO7         -0.7000     2.7920    -0.0320 ho         1 MNM       0.519000
     19 HC8          1.3200     0.2620    -1.3190 hc         1 MNM       0.081700
     20 HC91         2.2960     0.3260     1.5740 h1         1 MNM       0.029200
     21 HC92         2.6450     1.5470     0.3390 h1         1 MNM       0.029200
     22 H1           1.6080    -2.0340    -0.4120 h1         1 MNM       0.046200
     23 H10          0.6970    -1.6070     1.0430 h1         1 MNM       0.046200
     24 H11          4.3590     0.0400     0.5370 ho         1 MNM       0.443000
@<TRIPOS>BOND
     1     1     2 1   
     2     1     3 1   
     3     1     4 1   
     4     1    12 1   
     5     2     5 1   
     6     2     6 1   
     7     2    13 1   
     8     3     7 1   
     9     3     8 1   
    10     3    14 1   
    11     4    15 1   
    12     5    16 1   
    13     6    10 1   
    14     6    17 1   
    15     7    18 1   
    16     8     9 1   
    17     8    10 1   
    18     8    19 1   
    19     9    11 1   
    20     9    20 1   
    21     9    21 1   
    22    10    22 1   
    23    10    23 1   
    24    11    24 1   
@<TRIPOS>SUBSTRUCTURE
     1 MNM         1 TEMP              0 ****  ****    0 ROOT
