@<TRIPOS>MOLECULE
MNM
   24    24     1     0     0
SMALL
abcg2


@<TRIPOS>ATOM
      1 C1          -1.3680     0.4640    -0.4260 c6         1 MNM       0.148300
      2 C2          -1.5970    -1.0310    -0.2040 c6         1 MNM       0.365500
      3 C3          -0.0710     0.9290     0.2310 c6         1 MNM       0.180300
      4 O4          -2.4090     1.2580     0.0950 oh         1 MNM      -0.654000
      5 O5          -1.8550    -1.2240     1.1730 oh         1 MNM      -0.730000
      6 N6          -0.4550    -1.7270    -0.7200 n7         1 MNM      -0.910400
      7 O7           0.1830     2.2840    -0.0740 oh         1 MNM      -0.727000
      8 C8           1.1090     0.0900    -0.2540 c6         1 MNM      -0.061700
      9 C9           2.3860     0.4870     0.4710 c3         1 MNM       0.167600
     10 C10          0.7960    -1.3920    -0.0620 c6         1 MNM       0.173800
     11 O11          3.4590    -0.2790    -0.0350 oh         1 MNM      -0.668000
     12 HC1         -1.2670     0.6100    -1.5100 h1         1 MNM       0.057700
     13 HC2         -2.4650    -1.3530    -0.7960 h2         1 MNM       0.041700
     14 HC3         -0.1660     0.7950     1.3200 h1         1 MNM       0.054700
     15 HO4         -3.1820     1.1610    -0.4690 ho         1 MNM       0.447000
     16 HO5         -2.0560    -2.1550     1.3120 ho         1 MNM       0.495000
     17 HN6         -0.6070    -2.7270    -0.7260 hn         1 MNM       0.423000
     18 HO7         -0.5740     2.7990     0.2260 ho         1 MNM       0.519000
     19 HC8          1.2380     0.2760    -1.3280 hc         1 MNM       0.081700
     20 HC91         2.2480     0.3180     1.5490 h1         1 MNM       0.029200
     21 HC92         2.5680     1.5580     0.3370 h1         1 MNM       0.029200
     22 H1           1.5860    -1.9940    -0.5110 h1         1 MNM       0.046200
     23 H10          0.7930    -1.6240     1.0130 h1         1 MNM       0.046200
     24 H11          4.2510    -0.0410     0.4540 ho         1 MNM       0.443000
@<TRIPOS>BOND
     1     1     2 1   
     2     1     3 1   
     3     1     4 1   
     4     1    12 1   
     5     2     5 1   
     6     2     6 1   
     7     2    13 1   
     8     3     7 1   
     9     3     8 1   
    10     3    14 1   
    11     4    15 1   
    12     5    16 1   
    13     6    10 1   
    14     6    17 1   
    15     7    18 1   
    16     8     9 1   
    17     8    10 1   
    18     8    19 1   
    19     9    11 1   
    20     9    20 1   
    21     9    21 1   
    22    10    22 1   
    23    10    23 1   
    24    11    24 1   
@<TRIPOS>SUBSTRUCTURE
     1 MNM         1 TEMP              0 ****  ****    0 ROOT
