@<TRIPOS>MOLECULE
MNN
   17    17     1     0     0
SMALL
No Charge or Current Charge


@<TRIPOS>ATOM
      1 C1          -0.0590    -0.0390     0.2750 ca         1 MNN      -0.137300
      2 C2          -0.9540    -0.9110     0.9330 ca         1 MNN      -0.087500
      3 C3          -2.3210    -0.9110     0.6040 ca         1 MNN      -0.109000
      4 C4          -2.8080    -0.0400    -0.3830 ca         1 MNN      -0.094000
      5 C5          -1.9280     0.8330    -1.0420 ca         1 MNN      -0.109000
      6 C6          -0.5600     0.8360    -0.7160 ca         1 MNN      -0.087500
      7 C7           1.4280    -0.0500     0.6470 c3         1 MNN       0.293700
      8 C8           2.2810    -0.3180    -0.5340 c1         1 MNN       0.261900
      9 N9           2.9630    -0.5010    -1.4640 n1         1 MNN      -0.445000
     10 O10          1.7690     1.1930     1.2900 oh         1 MNN      -0.630000
     11 H2          -0.5930    -1.5910     1.7020 ha         1 MNN       0.117500
     12 H3          -3.0020    -1.5870     1.1160 ha         1 MNN       0.118000
     13 H4          -3.8660    -0.0410    -0.6370 ha         1 MNN       0.117000
     14 H5          -2.3050     1.5080    -1.8070 ha         1 MNN       0.118000
     15 H6           0.1060     1.5190    -1.2400 ha         1 MNN       0.117500
     16 H7           1.6060    -0.8800     1.3440 h1         1 MNN       0.099700
     17 H10          1.4760     1.9070     0.6840 ho         1 MNN       0.455000
@<TRIPOS>BOND
     1     1     2 ar  
     2     1     6 ar  
     3     1     7 1   
     4     2     3 ar  
     5     2    11 1   
     6     3     4 ar  
     7     3    12 1   
     8     4     5 ar  
     9     4    13 1   
    10     5     6 ar  
    11     5    14 1   
    12     6    15 1   
    13     7     8 1   
    14     7    10 1   
    15     7    16 1   
    16     8     9 3   
    17    10    17 1   
@<TRIPOS>SUBSTRUCTURE
     1 MNN         1 TEMP              0 ****  ****    0 ROOT
