@<TRIPOS>MOLECULE
MNN
   17    17     1     0     0
SMALL
abcg2


@<TRIPOS>ATOM
      1 C1          -0.0700    -0.0800     0.2310 ca         1 MNN      -0.137300
      2 C2          -0.9620    -0.8680     0.9490 ca         1 MNN      -0.087500
      3 C3          -2.3170    -0.8420     0.6470 ca         1 MNN      -0.109000
      4 C4          -2.7860    -0.0220    -0.3710 ca         1 MNN      -0.094000
      5 C5          -1.8980     0.7700    -1.0880 ca         1 MNN      -0.109000
      6 C6          -0.5440     0.7420    -0.7880 ca         1 MNN      -0.087500
      7 C7           1.3900    -0.0660     0.6210 c3         1 MNN       0.293700
      8 C8           2.2460    -0.1810    -0.5790 c1         1 MNN       0.261900
      9 N9           2.9220    -0.2650    -1.5050 n1         1 MNN      -0.445000
     10 O10          1.7590     1.0470     1.3830 oh         1 MNN      -0.630000
     11 H2          -0.5970    -1.5080     1.7430 ha         1 MNN       0.117500
     12 H3          -3.0040    -1.4640     1.2050 ha         1 MNN       0.118000
     13 H4          -3.8410    -0.0040    -0.6090 ha         1 MNN       0.117000
     14 H5          -2.2600     1.4060    -1.8850 ha         1 MNN       0.118000
     15 H6           0.1400     1.3570    -1.3630 ha         1 MNN       0.117500
     16 H7           1.6030    -0.9470     1.2320 h1         1 MNN       0.099700
     17 H10          1.4520     1.8510     0.9480 ho         1 MNN       0.455000
@<TRIPOS>BOND
     1     1     2 ar  
     2     1     6 ar  
     3     1     7 1   
     4     2     3 ar  
     5     2    11 1   
     6     3     4 ar  
     7     3    12 1   
     8     4     5 ar  
     9     4    13 1   
    10     5     6 ar  
    11     5    14 1   
    12     6    15 1   
    13     7     8 1   
    14     7    10 1   
    15     7    16 1   
    16     8     9 3   
    17    10    17 1   
@<TRIPOS>SUBSTRUCTURE
     1 MNN         1 TEMP              0 ****  ****    0 ROOT
