@<TRIPOS>MOLECULE
MNO
   70    72     1     0     0
SMALL
bcc


@<TRIPOS>ATOM
      1 C1          -0.5190    -0.4750    -5.3640 ca         1 MNO      -0.053000
      2 C2          -0.3680     0.0870    -4.1220 ca         1 MNO      -0.153600
      3 C3          -1.4950     0.6460    -3.4700 ca         1 MNO      -0.111000
      4 C4          -2.7280     0.6120    -4.0570 ca         1 MNO      -0.123000
      5 C5          -2.9100     0.0150    -5.3260 ca         1 MNO      -0.022000
      6 C6          -1.7830    -0.5350    -5.9890 ca         1 MNO      -0.051000
      7 C7          -1.9540    -1.1250    -7.2640 ca         1 MNO      -0.107000
      8 C8          -3.1890    -1.1660    -7.8500 ca         1 MNO      -0.128000
      9 C9          -4.3100    -0.6190    -7.1890 ca         1 MNO      -0.115000
     10 C10         -4.1740    -0.0410    -5.9560 ca         1 MNO      -0.122000
     11 C11          0.9990     0.1120    -3.5150 c          1 MNO       0.685700
     12 O1           2.0070     0.0870    -4.2100 o          1 MNO      -0.611100
     13 N1           1.0320     0.1450    -2.1750 ns         1 MNO      -0.568900
     14 C12          2.2480     0.2380    -1.3990 c3         1 MNO       0.050700
     15 C13          1.9260    -0.3570    -0.0340 c          1 MNO       0.675100
     16 O2           0.8010    -0.2210     0.4360 o          1 MNO      -0.639100
     17 C14          2.7260     1.7090    -1.2860 c3         1 MNO      -0.068700
     18 C16          1.7120     2.6150    -0.5970 c3         1 MNO      -0.093100
     19 C17          4.0900     1.8280    -0.6180 c3         1 MNO      -0.093100
     20 N2           2.8860    -0.9940     0.6490 n          1 MNO      -0.458800
     21 C18          2.5940    -1.4320     2.0040 c5         1 MNO       0.026700
     22 C19          2.2260    -0.2460     2.8850 c          1 MNO       0.681100
     23 O3           2.8040     0.8230     2.8010 o          1 MNO      -0.580100
     24 C20          3.8960    -2.1010     2.4550 c5         1 MNO      -0.085400
     25 C21          4.4910    -2.6050     1.1450 c5         1 MNO      -0.097400
     26 C22          4.1880    -1.4680     0.1810 c5         1 MNO       0.108000
     27 N3           1.2550    -0.5000     3.7780 ns         1 MNO      -0.559900
     28 C24         -0.6670     0.3260     5.0140 c3         1 MNO      -0.170400
     29 C25         -1.4360     0.7600     3.7870 c          1 MNO       0.704100
     30 N4          -2.4420    -0.0970     3.4200 ns         1 MNO      -0.653300
     31 O5          -1.1960     1.7760     3.1780 o          1 MNO      -0.531100
     32 C26          0.8340     0.4430     4.7700 c3         1 MNO      -0.006300
     33 S1          -3.4950     0.1750     2.1350 s6         1 MNO       1.245600
     34 O4          -4.4250    -0.9370     2.1970 o          1 MNO      -0.595300
     35 O7          -4.0000     1.5310     2.2150 o          1 MNO      -0.595300
     36 C15         -2.4720     0.0150     0.7000 c3         1 MNO      -0.243300
     37 C27          1.5930     0.2980     6.0710 c          1 MNO       0.555900
     38 H1           0.3390    -0.8930    -5.8760 ha         1 MNO       0.153000
     39 H3          -1.3890     1.1490    -2.5170 ha         1 MNO       0.134000
     40 H4          -3.5790     1.0570    -3.5560 ha         1 MNO       0.135000
     41 H7          -1.0930    -1.5460    -7.7690 ha         1 MNO       0.135000
     42 H8          -3.3140    -1.6200    -8.8240 ha         1 MNO       0.133000
     43 H9          -5.2820    -0.6600    -7.6640 ha         1 MNO       0.133000
     44 H10         -5.0350     0.3790    -5.4490 ha         1 MNO       0.134000
     45 HN1          0.1800     0.0750    -1.6410 hn         1 MNO       0.338500
     46 H12          3.0270    -0.3340    -1.9060 h1         1 MNO       0.080700
     47 H14          2.8350     2.0420    -2.3230 hc         1 MNO       0.065700
     48 H161         2.0270     3.6550    -0.6890 hc         1 MNO       0.041367
     49 H162         0.7190     2.5380    -1.0410 hc         1 MNO       0.041367
     50 H163         1.6250     2.3870     0.4660 hc         1 MNO       0.041367
     51 H171         4.0430     1.5580     0.4380 hc         1 MNO       0.041367
     52 H172         4.8380     1.1980    -1.1030 hc         1 MNO       0.041367
     53 H173         4.4430     2.8580    -0.6790 hc         1 MNO       0.041367
     54 H18          1.7780    -2.1630     1.9940 h1         1 MNO       0.061700
     55 H201         3.7120    -2.8910     3.1820 hc         1 MNO       0.068200
     56 H202         4.5640    -1.3680     2.9130 hc         1 MNO       0.068200
     57 H211         3.9860    -3.5180     0.8240 hc         1 MNO       0.059700
     58 H212         5.5580    -2.8130     1.2130 hc         1 MNO       0.059700
     59 H221         4.1410    -1.7970    -0.8560 h1         1 MNO       0.059700
     60 H222         4.9430    -0.6840     0.2610 h1         1 MNO       0.059700
     61 HN3          0.8670    -1.4310     3.8180 hn         1 MNO       0.315500
     62 H241        -0.9230    -0.6910     5.3150 hc         1 MNO       0.073200
     63 H242        -0.9700     0.9770     5.8410 hc         1 MNO       0.073200
     64 HN4         -2.5640    -0.9780     3.9040 hn         1 MNO       0.343500
     65 H26          1.0460     1.4560     4.4130 h1         1 MNO       0.125700
     66 H151        -3.1260     0.1460    -0.1620 h1         1 MNO       0.113700
     67 H152        -1.6980     0.7760     0.7120 h1         1 MNO       0.113700
     68 H153        -2.0290    -0.9770     0.6910 h1         1 MNO       0.113700
     69 H27          1.2350     0.9640     6.8770 h4         1 MNO      -0.003800
     70 O6           2.5190    -0.4490     6.2320 o          1 MNO      -0.494100
@<TRIPOS>BOND
     1     1     2 ar  
     2     1     6 ar  
     3     1    38 1   
     4     2     3 ar  
     5     2    11 1   
     6     3     4 ar  
     7     3    39 1   
     8     4     5 ar  
     9     4    40 1   
    10     5     6 ar  
    11     5    10 ar  
    12     6     7 ar  
    13     7     8 ar  
    14     7    41 1   
    15     8     9 ar  
    16     8    42 1   
    17     9    10 ar  
    18     9    43 1   
    19    10    44 1   
    20    11    12 2   
    21    11    13 1   
    22    13    14 1   
    23    13    45 1   
    24    14    15 1   
    25    14    17 1   
    26    14    46 1   
    27    15    16 2   
    28    15    20 1   
    29    17    18 1   
    30    17    19 1   
    31    17    47 1   
    32    18    48 1   
    33    18    49 1   
    34    18    50 1   
    35    19    51 1   
    36    19    52 1   
    37    19    53 1   
    38    20    21 1   
    39    20    26 1   
    40    21    22 1   
    41    21    24 1   
    42    21    54 1   
    43    22    23 2   
    44    22    27 1   
    45    24    25 1   
    46    24    55 1   
    47    24    56 1   
    48    25    26 1   
    49    25    57 1   
    50    25    58 1   
    51    26    59 1   
    52    26    60 1   
    53    27    32 1   
    54    27    61 1   
    55    28    29 1   
    56    28    32 1   
    57    28    62 1   
    58    28    63 1   
    59    29    30 1   
    60    29    31 2   
    61    30    33 1   
    62    30    64 1   
    63    32    37 1   
    64    32    65 1   
    65    33    34 2   
    66    33    35 2   
    67    33    36 1   
    68    36    66 1   
    69    36    67 1   
    70    36    68 1   
    71    37    69 1   
    72    37    70 2   
@<TRIPOS>SUBSTRUCTURE
     1 MNO         1 TEMP              0 ****  ****    0 ROOT
