@<TRIPOS>MOLECULE
MNO
   70    72     1     0     0
SMALL
No Charge or Current Charge


@<TRIPOS>ATOM
      1 C1          -0.5740    -0.3780    -5.8480 ca         1 MNO      -0.035000
      2 C2          -0.5270    -0.3410    -4.4350 ca         1 MNO      -0.153600
      3 C3          -1.7400    -0.4680    -3.7140 ca         1 MNO      -0.093000
      4 C4          -2.9610    -0.6290    -4.3910 ca         1 MNO      -0.105000
      5 C5          -2.9960    -0.6660    -5.7950 ca         1 MNO      -0.022000
      6 C6          -1.7970    -0.5400    -6.5270 ca         1 MNO      -0.051000
      7 C7          -1.8290    -0.5750    -7.9340 ca         1 MNO      -0.089000
      8 C8          -3.0520    -0.7370    -8.6080 ca         1 MNO      -0.110000
      9 C9          -4.2460    -0.8630    -7.8780 ca         1 MNO      -0.097000
     10 C10         -4.2190    -0.8280    -6.4730 ca         1 MNO      -0.104000
     11 C11          0.8100    -0.1630    -3.7450 c          1 MNO       0.618700
     12 O1           1.8560    -0.0380    -4.3680 o          1 MNO      -0.611100
     13 N1           0.7950    -0.1550    -2.3690 ns         1 MNO      -0.501900
     14 C12          1.9740     0.0390    -1.4930 c3         1 MNO       0.050700
     15 C13          1.6670    -0.5800    -0.0860 c          1 MNO       0.608100
     16 O2           0.5090    -0.7260     0.2990 o          1 MNO      -0.639100
     17 C14          2.3820     1.5500    -1.4530 c3         1 MNO      -0.068700
     18 C16          1.3140     2.4510    -0.7870 c3         1 MNO      -0.093100
     19 C17          3.7740     1.8060    -0.8330 c3         1 MNO      -0.093100
     20 N2           2.7340    -0.9420     0.7640 n          1 MNO      -0.391800
     21 C18          2.5060    -1.3270     2.1850 c5         1 MNO       0.026700
     22 C19          1.8760    -0.2220     3.0950 c          1 MNO       0.614100
     23 O3           1.7350     0.9680     2.8480 o          1 MNO      -0.580100
     24 C20          3.9670    -1.5910     2.6480 c5         1 MNO      -0.085400
     25 C21          4.5420    -2.3220     1.4120 c5         1 MNO      -0.097400
     26 C22          4.0370    -1.4300     0.2490 c5         1 MNO       0.108000
     27 N3           1.4840    -0.7970     4.2880 ns         1 MNO      -0.492900
     28 C24         -0.6250    -0.0520     5.4370 c3         1 MNO      -0.170400
     29 C25         -1.2060     0.9340     4.4220 c          1 MNO       0.637100
     30 N4          -1.8250     0.3680     3.3550 ns         1 MNO      -0.586300
     31 O5          -1.1500     2.1410     4.5940 o          1 MNO      -0.531100
     32 C26          0.9280    -0.0670     5.4520 c3         1 MNO      -0.006300
     33 S1          -2.8080     1.1190     2.2350 s6         1 MNO       1.214800
     34 O4          -3.4160     0.0640     1.4200 o          1 MNO      -0.524500
     35 O7          -3.6570     2.0850     2.9390 o          1 MNO      -0.524500
     36 C15         -1.6650     2.0260     1.2150 c3         1 MNO      -0.354100
     37 C27          1.4790    -0.6560     6.7780 c          1 MNO       0.555900
     38 H1           0.3440    -0.2810    -6.4240 ha         1 MNO       0.135000
     39 H3          -1.7590    -0.4430    -2.6270 ha         1 MNO       0.116000
     40 H4          -3.8820    -0.7250    -3.8200 ha         1 MNO       0.117000
     41 H7          -0.9090    -0.4790    -8.5080 ha         1 MNO       0.117000
     42 H8          -3.0740    -0.7650    -9.6950 ha         1 MNO       0.115000
     43 H9          -5.1930    -0.9880    -8.4010 ha         1 MNO       0.115000
     44 H10         -5.1470    -0.9260    -5.9150 ha         1 MNO       0.116000
     45 HN1         -0.1010    -0.2980    -1.9200 hn         1 MNO       0.338500
     46 H12          2.8020    -0.5320    -1.9300 h1         1 MNO       0.080700
     47 H14          2.4610     1.8830    -2.4960 hc         1 MNO       0.065700
     48 H161         1.5880     3.5090    -0.8830 hc         1 MNO       0.041367
     49 H162         0.3330     2.3180    -1.2580 hc         1 MNO       0.041367
     50 H163         1.2210     2.2250     0.2820 hc         1 MNO       0.041367
     51 H171         3.7830     1.5730     0.2390 hc         1 MNO       0.041367
     52 H172         4.5400     1.2040    -1.3360 hc         1 MNO       0.041367
     53 H173         4.0550     2.8600    -0.9460 hc         1 MNO       0.041367
     54 H18          1.8910    -2.2350     2.2430 h1         1 MNO       0.061700
     55 H201         4.0210    -2.1960     3.5600 hc         1 MNO       0.068200
     56 H202         4.5080    -0.6550     2.8410 hc         1 MNO       0.068200
     57 H211         4.1390    -3.3390     1.3330 hc         1 MNO       0.059700
     58 H212         5.6350    -2.4030     1.4330 hc         1 MNO       0.059700
     59 H221         3.9370    -2.0040    -0.6820 h1         1 MNO       0.059700
     60 H222         4.7290    -0.5980     0.0740 h1         1 MNO       0.059700
     61 HN3          1.6720    -1.7890     4.3950 hn         1 MNO       0.315500
     62 H241        -0.9880    -1.0680     5.2390 hc         1 MNO       0.073200
     63 H242        -0.9740     0.2670     6.4260 hc         1 MNO       0.073200
     64 HN4         -1.8480    -0.6330     3.2620 hn         1 MNO       0.343500
     65 H26          1.2890     0.9710     5.4330 h1         1 MNO       0.125700
     66 H151        -2.2490     2.5470     0.4510 h1         1 MNO       0.113700
     67 H152        -1.1300     2.7290     1.8600 h1         1 MNO       0.113700
     68 H153        -0.9840     1.2970     0.7690 h1         1 MNO       0.113700
     69 H27          1.2460    -0.0660     7.6920 h4         1 MNO      -0.003800
     70 O6           2.1330    -1.6930     6.8490 o          1 MNO      -0.494100
@<TRIPOS>BOND
     1     1     2 ar  
     2     1     6 ar  
     3     1    38 1   
     4     2     3 ar  
     5     2    11 1   
     6     3     4 ar  
     7     3    39 1   
     8     4     5 ar  
     9     4    40 1   
    10     5     6 ar  
    11     5    10 ar  
    12     6     7 ar  
    13     7     8 ar  
    14     7    41 1   
    15     8     9 ar  
    16     8    42 1   
    17     9    10 ar  
    18     9    43 1   
    19    10    44 1   
    20    11    12 2   
    21    11    13 1   
    22    13    14 1   
    23    13    45 1   
    24    14    15 1   
    25    14    17 1   
    26    14    46 1   
    27    15    16 2   
    28    15    20 1   
    29    17    18 1   
    30    17    19 1   
    31    17    47 1   
    32    18    48 1   
    33    18    49 1   
    34    18    50 1   
    35    19    51 1   
    36    19    52 1   
    37    19    53 1   
    38    20    21 1   
    39    20    26 1   
    40    21    22 1   
    41    21    24 1   
    42    21    54 1   
    43    22    23 2   
    44    22    27 1   
    45    24    25 1   
    46    24    55 1   
    47    24    56 1   
    48    25    26 1   
    49    25    57 1   
    50    25    58 1   
    51    26    59 1   
    52    26    60 1   
    53    27    32 1   
    54    27    61 1   
    55    28    29 1   
    56    28    32 1   
    57    28    62 1   
    58    28    63 1   
    59    29    30 1   
    60    29    31 2   
    61    30    33 1   
    62    30    64 1   
    63    32    37 1   
    64    32    65 1   
    65    33    34 2   
    66    33    35 2   
    67    33    36 1   
    68    36    66 1   
    69    36    67 1   
    70    36    68 1   
    71    37    69 1   
    72    37    70 2   
@<TRIPOS>SUBSTRUCTURE
     1 MNO         1 TEMP              0 ****  ****    0 ROOT
