@<TRIPOS>MOLECULE
MNP
   19    19     1     0     0
SMALL
abcg2


@<TRIPOS>ATOM
      1 C1          -0.5350     0.2080     2.9840 c          1 MNP       0.727000
      2 C2           0.0440    -0.9650     2.1480 c3         1 MNP      -0.200100
      3 C7           0.5320    -0.5590     0.7960 ca         1 MNP       0.005700
      4 C8          -0.3560    -0.4350    -0.2660 ca         1 MNP      -0.039000
      5 C3           0.1080    -0.0430    -1.5120 ca         1 MNP      -0.179200
      6 N3          -0.8390     0.0730    -2.6110 no         1 MNP       0.697200
      7 O3          -0.4140     0.3860    -3.6990 o          1 MNP      -0.426000
      8 O4          -2.0060    -0.1490    -2.3870 o          1 MNP      -0.426000
      9 C4           1.4470     0.2420    -1.7440 ca         1 MNP      -0.088000
     10 C5           2.3290     0.1210    -0.6850 ca         1 MNP      -0.130000
     11 C6           1.8760    -0.2760     0.5670 ca         1 MNP      -0.079000
     12 O1          -0.6530     1.3090     2.4210 o          1 MNP      -0.718000
     13 O2          -0.8430    -0.0820     4.1550 o          1 MNP      -0.718000
     14 H21          0.8500    -1.4380     2.7150 hc         1 MNP       0.038200
     15 H22         -0.7390    -1.7240     2.0500 hc         1 MNP       0.038200
     16 H2          -1.4040    -0.6540    -0.1120 ha         1 MNP       0.150000
     17 H4           1.8000     0.5470    -2.7180 ha         1 MNP       0.128000
     18 H5           3.3780     0.3340    -0.8390 ha         1 MNP       0.104000
     19 H6           2.5850    -0.3690     1.3810 ha         1 MNP       0.115000
@<TRIPOS>BOND
     1     1     2 1   
     2     1    12 1   
     3     1    13 1   
     4     2     3 1   
     5     2    14 1   
     6     2    15 1   
     7     3     4 ar  
     8     3    11 ar  
     9     4     5 ar  
    10     4    16 1   
    11     5     6 1   
    12     5     9 ar  
    13     6     7 1   
    14     6     8 1   
    15     9    10 ar  
    16     9    17 1   
    17    10    11 ar  
    18    10    18 1   
    19    11    19 1   
@<TRIPOS>SUBSTRUCTURE
     1 MNP         1 TEMP              0 ****  ****    0 ROOT
