@<TRIPOS>MOLECULE
MNP
   19    19     1     0     0
SMALL
No Charge or Current Charge


@<TRIPOS>ATOM
      1 C1          -0.5620     0.1930     2.9510 c          1 MNP       0.727000
      2 C2          -0.1230    -1.0440     2.1570 c3         1 MNP      -0.200100
      3 C7           0.4640    -0.6040     0.8180 ca         1 MNP       0.005700
      4 C8          -0.3790    -0.3930    -0.2920 ca         1 MNP      -0.039000
      5 C3           0.1540     0.0130    -1.5390 ca         1 MNP      -0.179200
      6 N3          -0.7510     0.2350    -2.7150 no         1 MNP       0.697200
      7 O3          -0.2440     0.5960    -3.7860 o          1 MNP      -0.426000
      8 O4          -1.9660     0.0440    -2.5650 o          1 MNP      -0.426000
      9 C4           1.5500     0.2060    -1.6580 ca         1 MNP      -0.088000
     10 C5           2.3900    -0.0030    -0.5510 ca         1 MNP      -0.130000
     11 C6           1.8500    -0.4060     0.6810 ca         1 MNP      -0.079000
     12 O1          -1.6840     0.6340     2.7500 o          1 MNP      -0.718000
     13 O2           0.2700     0.7500     3.6520 o          1 MNP      -0.718000
     14 H21          0.6660    -1.5780     2.6990 hc         1 MNP       0.038200
     15 H22         -0.9900    -1.6770     1.9360 hc         1 MNP       0.038200
     16 H2          -1.4500    -0.5450    -0.1730 ha         1 MNP       0.150000
     17 H4           1.9930     0.5180    -2.6030 ha         1 MNP       0.128000
     18 H5           3.4630     0.1480    -0.6490 ha         1 MNP       0.104000
     19 H6           2.5110    -0.5620     1.5300 ha         1 MNP       0.115000
@<TRIPOS>BOND
     1     1     2 1   
     2     1    12 1   
     3     1    13 1   
     4     2     3 1   
     5     2    14 1   
     6     2    15 1   
     7     3     4 ar  
     8     3    11 ar  
     9     4     5 ar  
    10     4    16 1   
    11     5     6 1   
    12     5     9 ar  
    13     6     7 1   
    14     6     8 1   
    15     9    10 ar  
    16     9    17 1   
    17    10    11 ar  
    18    10    18 1   
    19    11    19 1   
@<TRIPOS>SUBSTRUCTURE
     1 MNP         1 TEMP              0 ****  ****    0 ROOT
