@<TRIPOS>MOLECULE
MNV
   23    22     1     0     0
SMALL
bcc


@<TRIPOS>ATOM
      1 N            1.5670    -0.2900     0.2330 n7         1 MNV      -0.829200
      2 CN           2.3660     0.5160     1.1350 c3         1 MNV       0.141100
      3 CA           0.3090     0.3290    -0.1350 c3         1 MNV       0.086500
      4 CB          -0.2970    -0.3700    -1.3710 c3         1 MNV      -0.058700
      5 CG1         -1.7340     0.0620    -1.6470 c3         1 MNV      -0.092100
      6 CG2          0.5560    -0.1110    -2.6130 c3         1 MNV      -0.092100
      7 C           -0.6590     0.2590     1.0460 c          1 MNV       0.669100
      8 O           -1.4260     1.1760     1.3090 o          1 MNV      -0.617100
      9 NT          -0.6220    -0.8980     1.7190 nt         1 MNV      -0.659000
     10 H            2.1100    -0.4840    -0.5970 hn         1 MNV       0.366800
     11 HN1          3.3180     0.0200     1.3230 h1         1 MNV       0.034367
     12 HN2          2.5750     1.5250     0.7570 h1         1 MNV       0.034367
     13 HN3          1.8630     0.6240     2.0980 h1         1 MNV       0.034367
     14 HA           0.4190     1.4000    -0.3730 h1         1 MNV       0.056700
     15 HB          -0.2940    -1.4460    -1.1690 hc         1 MNV       0.056700
     16 HG11        -2.0890    -0.4080    -2.5660 hc         1 MNV       0.038200
     17 HG12        -2.4210    -0.2280    -0.8530 hc         1 MNV       0.038200
     18 HG13        -1.8080     1.1430    -1.7790 hc         1 MNV       0.038200
     19 HG21         0.6070     0.9580    -2.8320 hc         1 MNV       0.038200
     20 HG22         1.5780    -0.4800    -2.5240 hc         1 MNV       0.038200
     21 HG23         0.1180    -0.6050    -3.4820 hc         1 MNV       0.038200
     22 HNT1        -1.1920    -1.0380     2.5360 hn         1 MNV       0.318500
     23 HNT2         0.1240    -1.5490     1.5340 hn         1 MNV       0.318500
@<TRIPOS>BOND
     1     1     2 1   
     2     1     3 1   
     3     1    10 1   
     4     2    11 1   
     5     2    12 1   
     6     2    13 1   
     7     3     4 1   
     8     3     7 1   
     9     3    14 1   
    10     4     5 1   
    11     4     6 1   
    12     4    15 1   
    13     5    16 1   
    14     5    17 1   
    15     5    18 1   
    16     6    19 1   
    17     6    20 1   
    18     6    21 1   
    19     7     8 2   
    20     7     9 1   
    21     9    22 1   
    22     9    23 1   
@<TRIPOS>SUBSTRUCTURE
     1 MNV         1 TEMP              0 ****  ****    0 ROOT
