@<TRIPOS>MOLECULE
MNV
   23    22     1     0     0
SMALL
No Charge or Current Charge


@<TRIPOS>ATOM
      1 N            1.7010    -0.1540     0.1440 n7         1 MNV      -0.884400
      2 CN           2.4710     0.5820     1.1700 c3         1 MNV       0.141100
      3 CA           0.3140     0.3590    -0.1220 c3         1 MNV       0.086500
      4 CB          -0.2880    -0.3880    -1.3590 c3         1 MNV      -0.058700
      5 CG1         -1.7530     0.0310    -1.6440 c3         1 MNV      -0.092100
      6 CG2          0.5690    -0.2030    -2.6390 c3         1 MNV      -0.092100
      7 C           -0.6220     0.2800     1.1400 c          1 MNV       0.602100
      8 O           -1.1360     1.2560     1.6660 o          1 MNV      -0.617100
      9 NT          -0.8310    -0.9540     1.6560 nt         1 MNV      -0.592000
     10 H            2.2300    -0.1080    -0.7360 hn         1 MNV       0.422000
     11 HN1          3.4720     0.1460     1.2870 h1         1 MNV       0.034367
     12 HN2          2.5910     1.6370     0.8880 h1         1 MNV       0.034367
     13 HN3          1.9700     0.5410     2.1470 h1         1 MNV       0.034367
     14 HA           0.3680     1.4250    -0.3850 h1         1 MNV       0.056700
     15 HB          -0.3010    -1.4620    -1.1310 hc         1 MNV       0.056700
     16 HG11        -2.1400    -0.4900    -2.5280 hc         1 MNV       0.038200
     17 HG12        -2.4130    -0.2190    -0.8040 hc         1 MNV       0.038200
     18 HG13        -1.8210     1.1100    -1.8270 hc         1 MNV       0.038200
     19 HG21         0.6680     0.8600    -2.8910 hc         1 MNV       0.038200
     20 HG22         1.5740    -0.6240    -2.5160 hc         1 MNV       0.038200
     21 HG23         0.1050    -0.7130    -3.4920 hc         1 MNV       0.038200
     22 HNT1        -1.4060    -1.0610     2.4770 hn         1 MNV       0.318500
     23 HNT2        -0.3550    -1.7440     1.2480 hn         1 MNV       0.318500
@<TRIPOS>BOND
     1     1     2 1   
     2     1     3 1   
     3     1    10 1   
     4     2    11 1   
     5     2    12 1   
     6     2    13 1   
     7     3     4 1   
     8     3     7 1   
     9     3    14 1   
    10     4     5 1   
    11     4     6 1   
    12     4    15 1   
    13     5    16 1   
    14     5    17 1   
    15     5    18 1   
    16     6    19 1   
    17     6    20 1   
    18     6    21 1   
    19     7     8 2   
    20     7     9 1   
    21     9    22 1   
    22     9    23 1   
@<TRIPOS>SUBSTRUCTURE
     1 MNV         1 TEMP              0 ****  ****    0 ROOT
