@<TRIPOS>MOLECULE
MNX
   27    29     1     0     0
SMALL
No Charge or Current Charge


@<TRIPOS>ATOM
      1 C1          26.6180     3.6000    16.3630 ca         1 MNX       0.222100
      2 C2          26.0810     4.8930    16.1500 ca         1 MNX      -0.252600
      3 C3          25.4610     5.5480    17.2260 ca         1 MNX       0.185100
      4 C4          25.3910     4.9510    18.4930 ca         1 MNX      -0.167000
      5 C5          25.9320     3.6760    18.7010 ca         1 MNX      -0.011000
      6 C6          26.5400     3.0030    17.6320 ca         1 MNX      -0.247000
      7 O13         24.9130     6.7930    17.0700 os         1 MNX      -0.194200
      8 C14         24.6690     7.3580    15.8430 ca         1 MNX       0.269100
      9 C15         25.2580     6.8180    14.6840 ca         1 MNX      -0.283600
     10 C16         26.1470     5.6140    14.8330 c          1 MNX       0.612300
     11 C22         25.0000     7.4340    13.4390 ca         1 MNX       0.267100
     12 C23         24.1920     8.5760    13.3680 ca         1 MNX      -0.272000
     13 C24         23.6220     9.1200    14.5260 ca         1 MNX       0.049000
     14 C25         23.8520     8.5040    15.7680 ca         1 MNX      -0.259200
     15 O16         26.9350     5.2820    13.9580 o          1 MNX      -0.487100
     16 O1          27.2000     2.8890    15.3590 oh         1 MNX      -0.493100
     17 O22         25.5020     6.9410    12.2740 oh         1 MNX      -0.476100
     18 N25         23.2290     9.0790    16.9860 no         1 MNX       0.692200
     19 O2B         22.6830     8.3060    17.7820 o          1 MNX      -0.393500
     20 O2A         23.1270    10.3100    17.0470 o          1 MNX      -0.393500
     21 HC4         24.9110     5.4790    19.3130 ha         1 MNX       0.150000
     22 HC5         25.8740     3.2100    19.6840 ha         1 MNX       0.126000
     23 HC6         26.9500     2.0090    17.7990 ha         1 MNX       0.123000
     24 HC23        23.9940     9.0530    12.4110 ha         1 MNX       0.134000
     25 HC24        22.9930    10.0070    14.4500 ha         1 MNX       0.155000
     26 HO1         27.4980     2.0310    15.7260 ho         1 MNX       0.468000
     27 HO22        25.2020     7.5190    11.5440 ho         1 MNX       0.477000
@<TRIPOS>BOND
     1     1     2 ar  
     2     1     6 ar  
     3     1    16 1   
     4     2     3 ar  
     5     2    10 1   
     6     3     4 ar  
     7     3     7 1   
     8     4     5 ar  
     9     4    21 1   
    10     5     6 ar  
    11     5    22 1   
    12     6    23 1   
    13     7     8 1   
    14     8     9 ar  
    15     8    14 ar  
    16     9    10 1   
    17     9    11 ar  
    18    10    15 2   
    19    11    12 ar  
    20    11    17 1   
    21    12    13 ar  
    22    12    24 1   
    23    13    14 ar  
    24    13    25 1   
    25    14    18 1   
    26    16    26 1   
    27    17    27 1   
    28    18    19 1   
    29    18    20 1   
@<TRIPOS>SUBSTRUCTURE
     1 MNX         1 TEMP              0 ****  ****    0 ROOT
