@<TRIPOS>MOLECULE
MNX
   27    29     1     0     0
SMALL
abcg2


@<TRIPOS>ATOM
      1 C1          26.6220     3.6060    16.3720 ca         1 MNX       0.222100
      2 C2          25.9590     4.8290    16.0920 ca         1 MNX      -0.252600
      3 C3          25.3320     5.4650    17.1720 ca         1 MNX       0.185100
      4 C4          25.3460     4.9700    18.4670 ca         1 MNX      -0.167000
      5 C5          26.0120     3.7790    18.7020 ca         1 MNX      -0.011000
      6 C6          26.6420     3.1000    17.6670 ca         1 MNX      -0.247000
      7 O13         24.6530     6.6390    17.0150 os         1 MNX      -0.194200
      8 C14         24.5410     7.2430    15.8250 ca         1 MNX       0.269100
      9 C15         25.1450     6.7170    14.6720 ca         1 MNX      -0.283600
     10 C16         25.9150     5.4510    14.7590 c          1 MNX       0.612300
     11 C22         25.0030     7.4440    13.4610 ca         1 MNX       0.267100
     12 C23         24.3170     8.6620    13.4380 ca         1 MNX      -0.272000
     13 C24         23.7540     9.1660    14.5860 ca         1 MNX       0.049000
     14 C25         23.8370     8.4610    15.7800 ca         1 MNX      -0.259200
     15 O16         26.4810     4.9690    13.7870 o          1 MNX      -0.487100
     16 O1          27.2300     2.9390    15.3670 oh         1 MNX      -0.493100
     17 O22         25.5340     6.9560    12.3350 oh         1 MNX      -0.476100
     18 N25         23.1780     9.0280    16.9390 no         1 MNX       0.692200
     19 O2B         22.7730     8.2840    17.8240 o          1 MNX      -0.393500
     20 O2A         23.0300    10.2490    16.9660 o          1 MNX      -0.393500
     21 HC4         24.8460     5.5160    19.2540 ha         1 MNX       0.150000
     22 HC5         26.0420     3.3690    19.7030 ha         1 MNX       0.126000
     23 HC6         27.1590     2.1670    17.8570 ha         1 MNX       0.123000
     24 HC23        24.2280     9.2000    12.5030 ha         1 MNX       0.134000
     25 HC24        23.2200    10.1040    14.5690 ha         1 MNX       0.155000
     26 HO1         27.6220     2.1260    15.7180 ho         1 MNX       0.468000
     27 HO22        25.3540     7.5620    11.6000 ho         1 MNX       0.477000
@<TRIPOS>BOND
     1     1     2 ar  
     2     1     6 ar  
     3     1    16 1   
     4     2     3 ar  
     5     2    10 1   
     6     3     4 ar  
     7     3     7 1   
     8     4     5 ar  
     9     4    21 1   
    10     5     6 ar  
    11     5    22 1   
    12     6    23 1   
    13     7     8 1   
    14     8     9 ar  
    15     8    14 ar  
    16     9    10 1   
    17     9    11 ar  
    18    10    15 2   
    19    11    12 ar  
    20    11    17 1   
    21    12    13 ar  
    22    12    24 1   
    23    13    14 ar  
    24    13    25 1   
    25    14    18 1   
    26    16    26 1   
    27    17    27 1   
    28    18    19 1   
    29    18    20 1   
@<TRIPOS>SUBSTRUCTURE
     1 MNX         1 TEMP              0 ****  ****    0 ROOT
