@<TRIPOS>MOLECULE
MNY
   30    32     1     0     0
SMALL
No Charge or Current Charge


@<TRIPOS>ATOM
      1 C1           1.4080     0.1250    -2.5950 ca         1 MNY       0.176100
      2 C2           0.7150     0.2030    -1.3580 ca         1 MNY      -0.210600
      3 C3          -0.7070     0.2020    -1.3600 ca         1 MNY      -0.210600
      4 C4          -1.3960     0.1240    -2.5990 ca         1 MNY       0.176100
      5 C5          -0.6920     0.0360    -3.8070 ca         1 MNY      -0.105000
      6 C6           0.7070     0.0370    -3.8050 ca         1 MNY      -0.105000
      7 C13         -1.4770     0.2970    -0.0600 c          1 MNY       0.625800
      8 C14         -0.7180     0.1660     1.2490 ca         1 MNY      -0.208600
      9 C15          0.7180     0.1680     1.2510 ca         1 MNY      -0.208600
     10 C16          1.4810     0.2980    -0.0560 c          1 MNY       0.625800
     11 C22          1.4100     0.0410     2.4880 ca         1 MNY       0.371000
     12 C23          0.6950    -0.0740     3.6850 ca         1 MNY      -0.126000
     13 C24         -0.7030    -0.0760     3.6830 ca         1 MNY      -0.126000
     14 C25         -1.4140     0.0380     2.4830 ca         1 MNY       0.371000
     15 O16          2.6950     0.4940    -0.0920 o          1 MNY      -0.639100
     16 O13         -2.6910     0.4930    -0.1000 o          1 MNY      -0.639100
     17 O1           2.7680     0.1350    -2.6420 oh         1 MNY      -0.554100
     18 N22          2.7750     0.0130     2.5790 nv         1 MNY      -0.792500
     19 N25         -2.7790     0.0060     2.5690 nv         1 MNY      -0.792500
     20 O4          -2.7570     0.1330    -2.6500 oh         1 MNY      -0.554100
     21 HC5         -1.2340    -0.0270    -4.7470 ha         1 MNY       0.135000
     22 HC6          1.2520    -0.0260    -4.7430 ha         1 MNY       0.135000
     23 HC23         1.2270    -0.1720     4.6280 ha         1 MNY       0.116000
     24 HC24        -1.2370    -0.1750     4.6240 ha         1 MNY       0.116000
     25 HO1          3.0650     0.2810    -1.7020 ho         1 MNY       0.519000
     26 H221         3.2300     0.0540     3.4840 hn         1 MNY       0.347750
     27 H222         3.3180     0.2060     1.7400 hn         1 MNY       0.347750
     28 H251        -3.3170     0.2050     1.7290 hn         1 MNY       0.347750
     29 H252        -3.2380     0.0590     3.4720 hn         1 MNY       0.347750
     30 HO4         -3.0560     0.2780    -1.7110 ho         1 MNY       0.519000
@<TRIPOS>BOND
     1     1     2 ar  
     2     1     6 ar  
     3     1    17 1   
     4     2     3 ar  
     5     2    10 1   
     6     3     4 ar  
     7     3     7 1   
     8     4     5 ar  
     9     4    20 1   
    10     5     6 ar  
    11     5    21 1   
    12     6    22 1   
    13     7     8 1   
    14     7    16 2   
    15     8     9 ar  
    16     8    14 ar  
    17     9    10 1   
    18     9    11 ar  
    19    10    15 2   
    20    11    12 ar  
    21    11    18 1   
    22    12    13 ar  
    23    12    23 1   
    24    13    14 ar  
    25    13    24 1   
    26    14    19 1   
    27    17    25 1   
    28    18    26 1   
    29    18    27 1   
    30    19    28 1   
    31    19    29 1   
    32    20    30 1   
@<TRIPOS>SUBSTRUCTURE
     1 MNY         1 TEMP              0 ****  ****    0 ROOT
