@<TRIPOS>MOLECULE
MNY
   30    32     1     0     0
SMALL
bcc


@<TRIPOS>ATOM
      1 C1           1.4140     0.1660    -2.5240 ca         1 MNY       0.176100
      2 C2           0.7100     0.1440    -1.3130 ca         1 MNY      -0.210600
      3 C3          -0.7020     0.1420    -1.3160 ca         1 MNY      -0.210600
      4 C4          -1.4020     0.1620    -2.5290 ca         1 MNY       0.176100
      5 C5          -0.6790     0.1820    -3.7290 ca         1 MNY      -0.123000
      6 C6           0.6940     0.1840    -3.7270 ca         1 MNY      -0.123000
      7 C13         -1.4430     0.1200    -0.0560 c          1 MNY       0.625800
      8 C14         -0.7220     0.0970     1.1910 ca         1 MNY      -0.208600
      9 C15          0.7220     0.0980     1.1940 ca         1 MNY      -0.208600
     10 C16          1.4470     0.1220    -0.0510 c          1 MNY       0.625800
     11 C22          1.4280     0.0770     2.4090 ca         1 MNY       0.232600
     12 C23          0.6710     0.0550     3.6200 ca         1 MNY      -0.144000
     13 C24         -0.6780     0.0540     3.6180 ca         1 MNY      -0.144000
     14 C25         -1.4320     0.0750     2.4050 ca         1 MNY       0.232600
     15 O16          2.6980     0.1250    -0.0870 o          1 MNY      -0.639100
     16 O13         -2.6950     0.1210    -0.0950 o          1 MNY      -0.639100
     17 O1           2.7450     0.1700    -2.5940 oh         1 MNY      -0.515100
     18 N22          2.7630     0.0730     2.5310 nv         1 MNY      -0.863700
     19 N25         -2.7670     0.0680     2.5220 nv         1 MNY      -0.863700
     20 O4          -2.7330     0.1630    -2.6020 oh         1 MNY      -0.515100
     21 HC5         -1.2190     0.1970    -4.6670 ha         1 MNY       0.153000
     22 HC6          1.2380     0.2010    -4.6630 ha         1 MNY       0.153000
     23 HC23         1.2040     0.0380     4.5630 ha         1 MNY       0.134000
     24 HC24        -1.2140     0.0360     4.5590 ha         1 MNY       0.134000
     25 HO1          3.0680     0.1540    -1.6570 ho         1 MNY       0.480000
     26 H221         3.1830     0.0740     3.4440 hn         1 MNY       0.452550
     27 H222         3.3500     0.1050     1.7160 hn         1 MNY       0.452550
     28 H251        -3.3520     0.1100     1.7060 hn         1 MNY       0.452550
     29 H252        -3.1890     0.0830     3.4340 hn         1 MNY       0.452550
     30 HO4         -3.0580     0.1470    -1.6660 ho         1 MNY       0.480000
@<TRIPOS>BOND
     1     1     2 ar  
     2     1     6 ar  
     3     1    17 1   
     4     2     3 ar  
     5     2    10 1   
     6     3     4 ar  
     7     3     7 1   
     8     4     5 ar  
     9     4    20 1   
    10     5     6 ar  
    11     5    21 1   
    12     6    22 1   
    13     7     8 1   
    14     7    16 2   
    15     8     9 ar  
    16     8    14 ar  
    17     9    10 1   
    18     9    11 ar  
    19    10    15 2   
    20    11    12 ar  
    21    11    18 1   
    22    12    13 ar  
    23    12    23 1   
    24    13    14 ar  
    25    13    24 1   
    26    14    19 1   
    27    17    25 1   
    28    18    26 1   
    29    18    27 1   
    30    19    28 1   
    31    19    29 1   
    32    20    30 1   
@<TRIPOS>SUBSTRUCTURE
     1 MNY         1 TEMP              0 ****  ****    0 ROOT
