@<TRIPOS>MOLECULE
MNZ
   51    53     1     0     0
SMALL
abcg2


@<TRIPOS>ATOM
      1 C4           1.9800    -0.2120     0.4020 c6         1 MNZ       0.023200
      2 C5           2.6840    -0.8150     1.6310 c3         1 MNZ      -0.070100
      3 C6           0.4590     0.0720     0.5820 c6         1 MNZ      -0.054700
      4 C7           0.2590     1.1450     1.6520 c6         1 MNZ      -0.064400
      5 C8           0.8280     2.4710     1.1700 c6         1 MNZ      -0.029200
      6 C10          2.6610     1.1210     0.0980 ce         1 MNZ      -0.135400
      7 C15         -2.3810     0.2770    -0.4410 c3         1 MNZ      -0.009100
      8 C17         -4.5130     1.3730     0.6220 cc         1 MNZ      -0.180000
      9 O2           3.9870     1.4180    -1.8260 o          1 MNZ      -0.726000
     10 C11          4.0070     1.1540    -0.6080 c          1 MNZ       0.724200
     11 O1           5.0200     0.9780     0.0990 o          1 MNZ      -0.726000
     12 C3           2.1140    -1.1560    -0.8050 c6         1 MNZ       0.184300
     13 O            3.4660    -1.5310    -0.9610 oh         1 MNZ      -0.620000
     14 C2           1.2430    -2.3960    -0.6560 c6         1 MNZ      -0.111400
     15 C9           2.1250     2.2920     0.4480 c2         1 MNZ      -0.284200
     16 C12         -0.4920    -1.1470     0.7200 c6         1 MNZ      -0.020000
     17 C1          -0.2400    -2.0880    -0.4840 c6         1 MNZ      -0.048700
     18 C           -1.0300    -3.3940    -0.4500 c3         1 MNZ      -0.084100
     19 C14         -1.9620    -0.6590     0.6960 c3         1 MNZ      -0.067400
     20 C16         -3.8370     0.6000    -0.3810 cc         1 MNZ      -0.137300
     21 C19         -4.8070     0.2090    -1.2420 cd         1 MNZ       0.106900
     22 O3          -6.0140     0.6770    -0.8520 os         1 MNZ      -0.250000
     23 C18         -5.8210     1.3820     0.2800 cd         1 MNZ       0.103900
     24 H1           3.7600    -0.6890     1.5420 hc         1 MNZ       0.035367
     25 H2           2.3770    -0.3110     2.5470 hc         1 MNZ       0.035367
     26 H3           2.4850    -1.8780     1.7610 hc         1 MNZ       0.035367
     27 H4           0.1740     0.5340    -0.3730 hc         1 MNZ       0.046700
     28 H5          -0.7960     1.2770     1.8950 hc         1 MNZ       0.025700
     29 H6           0.7400     0.8480     2.5870 hc         1 MNZ       0.025700
     30 H7           0.1080     2.9610     0.5010 hc         1 MNZ       0.018700
     31 H8           0.9550     3.1620     2.0090 hc         1 MNZ       0.018700
     32 H9           0.5790    -2.4980     2.0880 hc         1 MNZ       0.028367
     33 H10         -0.2940    -1.2020     2.8920 hc         1 MNZ       0.028367
     34 H11         -1.1660    -2.5700     2.2180 hc         1 MNZ       0.028367
     35 H12         -1.8090     1.2080    -0.3930 hc         1 MNZ       0.056200
     36 H13         -2.1530    -0.1690    -1.4120 hc         1 MNZ       0.056200
     37 H16          1.7710    -0.5990    -1.6910 h1         1 MNZ       0.040700
     38 H17          3.5700    -1.9000    -1.8430 ho         1 MNZ       0.426000
     39 H18          1.3680    -3.0200    -1.5480 hc         1 MNZ       0.032700
     40 H19          1.6060    -2.9970     0.1830 hc         1 MNZ       0.032700
     41 H20          2.6520     3.2080     0.1900 ha         1 MNZ       0.173000
     42 H21         -0.5530    -1.5480    -1.3850 hc         1 MNZ       0.040700
     43 H22         -2.1070    -3.2350    -0.3800 hc         1 MNZ       0.024033
     44 H23         -0.8500    -3.9640    -1.3630 hc         1 MNZ       0.024033
     45 H24         -0.7340    -4.0260     0.3890 hc         1 MNZ       0.024033
     46 H25         -2.1950    -0.1710     1.6470 hc         1 MNZ       0.032200
     47 H26         -2.6120    -1.5380     0.6740 hc         1 MNZ       0.032200
     48 H27         -4.7830    -0.3820    -2.1440 h4         1 MNZ       0.048100
     49 H28         -6.6940     1.8290     0.7290 h4         1 MNZ       0.042100
     50 C13         -0.3250    -1.8940     2.0490 c3         1 MNZ      -0.077100
     51 H14         -4.0710     1.8560     1.4790 ha         1 MNZ       0.142000
@<TRIPOS>BOND
     1     1     2 1   
     2     1     3 1   
     3     1     6 1   
     4     1    12 1   
     5     2    24 1   
     6     2    25 1   
     7     2    26 1   
     8     3     4 1   
     9     3    16 1   
    10     3    27 1   
    11     4     5 1   
    12     4    28 1   
    13     4    29 1   
    14     5    15 1   
    15     5    30 1   
    16     5    31 1   
    17     6    10 1   
    18     6    15 2   
    19     7    19 1   
    20     7    20 1   
    21     7    35 1   
    22     7    36 1   
    23     8    20 1   
    24     8    23 2   
    25     8    51 1   
    26     9    10 1   
    27    10    11 1   
    28    12    13 1   
    29    12    14 1   
    30    12    37 1   
    31    13    38 1   
    32    14    17 1   
    33    14    39 1   
    34    14    40 1   
    35    15    41 1   
    36    16    17 1   
    37    16    19 1   
    38    16    50 1   
    39    17    18 1   
    40    17    42 1   
    41    18    43 1   
    42    18    44 1   
    43    18    45 1   
    44    19    46 1   
    45    19    47 1   
    46    20    21 2   
    47    21    22 1   
    48    21    48 1   
    49    22    23 1   
    50    23    49 1   
    51    32    50 1   
    52    33    50 1   
    53    34    50 1   
@<TRIPOS>SUBSTRUCTURE
     1 MNZ         1 TEMP              0 ****  ****    0 ROOT
