@<TRIPOS>MOLECULE
MNZ
   51    53     1     0     0
SMALL
No Charge or Current Charge


@<TRIPOS>ATOM
      1 C4           2.0900    -0.1500     0.3600 c6         1 MNZ       0.023200
      2 C5           2.7590    -0.7290     1.6590 c3         1 MNZ      -0.070100
      3 C6           0.5020     0.1740     0.5750 c6         1 MNZ      -0.054700
      4 C7           0.2840     1.2620     1.6520 c6         1 MNZ      -0.064400
      5 C8           0.9100     2.5780     1.1680 c6         1 MNZ      -0.029200
      6 C10          2.8490     1.2340     0.0860 ce         1 MNZ      -0.135400
      7 C15         -2.5530     0.1660    -0.4860 c3         1 MNZ      -0.009100
      8 C17         -4.5790     1.4260     0.5060 cc         1 MNZ      -0.180000
      9 O2           4.5960     2.3630    -1.0410 o          1 MNZ      -0.726000
     10 C11          4.2600     1.3120    -0.5090 c          1 MNZ       0.724200
     11 O1           5.0750     0.4250    -0.3160 o          1 MNZ      -0.726000
     12 C3           2.2130    -1.2090    -0.8580 c6         1 MNZ       0.184300
     13 O            3.5250    -1.7360    -1.0620 oh         1 MNZ      -0.620000
     14 C2           1.2830    -2.4450    -0.6740 c6         1 MNZ      -0.111400
     15 C9           2.2570     2.4030     0.4830 c2         1 MNZ      -0.284200
     16 C12         -0.5020    -1.1290     0.6960 c6         1 MNZ      -0.020000
     17 C1          -0.2280    -2.1100    -0.5420 c6         1 MNZ      -0.048700
     18 C           -1.0730    -3.4230    -0.5600 c3         1 MNZ      -0.084100
     19 C14         -2.0510    -0.6990     0.6970 c3         1 MNZ      -0.067400
     20 C16         -4.0200     0.4820    -0.3780 cc         1 MNZ      -0.137300
     21 C19         -5.0810    -0.0380    -1.0730 cd         1 MNZ       0.106900
     22 O3          -6.2780     0.5180    -0.6800 os         1 MNZ      -0.250000
     23 C18         -5.9290     1.4190     0.2980 cd         1 MNZ       0.103900
     24 H1           3.8350    -0.8790     1.5240 hc         1 MNZ       0.035367
     25 H2           2.6550    -0.0570     2.5160 hc         1 MNZ       0.035367
     26 H3           2.3690    -1.7030     1.9500 hc         1 MNZ       0.035367
     27 H4           0.2070     0.6410    -0.3740 hc         1 MNZ       0.046700
     28 H5          -0.7810     1.4450     1.8360 hc         1 MNZ       0.025700
     29 H6           0.7090     0.9640     2.6170 hc         1 MNZ       0.025700
     30 H7           0.2240     3.0630     0.4600 hc         1 MNZ       0.018700
     31 H8           1.0110     3.2700     2.0150 hc         1 MNZ       0.018700
     32 H9           0.4810    -2.6180     2.0850 hc         1 MNZ       0.028367
     33 H10         -0.2750    -1.2560     2.9210 hc         1 MNZ       0.028367
     34 H11         -1.2470    -2.5620     2.2570 hc         1 MNZ       0.028367
     35 H12         -1.9930     1.1070    -0.5250 hc         1 MNZ       0.056200
     36 H13         -2.3690    -0.3510    -1.4340 hc         1 MNZ       0.056200
     37 H16          1.8900    -0.6880    -1.7720 h1         1 MNZ       0.040700
     38 H17          3.4830    -2.2910    -1.8680 ho         1 MNZ       0.426000
     39 H18          1.4100    -3.1000    -1.5480 hc         1 MNZ       0.032700
     40 H19          1.6150    -3.0460     0.1820 hc         1 MNZ       0.032700
     41 H20          2.7830     3.3470     0.3330 ha         1 MNZ       0.173000
     42 H21         -0.5010    -1.5830    -1.4650 hc         1 MNZ       0.040700
     43 H22         -2.1480    -3.2230    -0.6260 hc         1 MNZ       0.024033
     44 H23         -0.8210    -4.0350    -1.4330 hc         1 MNZ       0.024033
     45 H24         -0.8940    -4.0400     0.3280 hc         1 MNZ       0.024033
     46 H25         -2.2800    -0.1560     1.6210 hc         1 MNZ       0.032200
     47 H26         -2.6950    -1.5840     0.7490 hc         1 MNZ       0.032200
     48 H27         -5.1120    -0.7910    -1.8510 h4         1 MNZ       0.048100
     49 H28         -6.7230     1.9890     0.7640 h4         1 MNZ       0.042100
     50 C13         -0.3690    -1.9330     2.0650 c3         1 MNZ      -0.077100
     51 H14         -4.0320     2.0380     1.2160 ha         1 MNZ       0.142000
@<TRIPOS>BOND
     1     1     2 1   
     2     1     3 1   
     3     1     6 1   
     4     1    12 1   
     5     2    24 1   
     6     2    25 1   
     7     2    26 1   
     8     3     4 1   
     9     3    16 1   
    10     3    27 1   
    11     4     5 1   
    12     4    28 1   
    13     4    29 1   
    14     5    15 1   
    15     5    30 1   
    16     5    31 1   
    17     6    10 1   
    18     6    15 2   
    19     7    19 1   
    20     7    20 1   
    21     7    35 1   
    22     7    36 1   
    23     8    20 1   
    24     8    23 2   
    25     8    51 1   
    26     9    10 1   
    27    10    11 1   
    28    12    13 1   
    29    12    14 1   
    30    12    37 1   
    31    13    38 1   
    32    14    17 1   
    33    14    39 1   
    34    14    40 1   
    35    15    41 1   
    36    16    17 1   
    37    16    19 1   
    38    16    50 1   
    39    17    18 1   
    40    17    42 1   
    41    18    43 1   
    42    18    44 1   
    43    18    45 1   
    44    19    46 1   
    45    19    47 1   
    46    20    21 2   
    47    21    22 1   
    48    21    48 1   
    49    22    23 1   
    50    23    49 1   
    51    32    50 1   
    52    33    50 1   
    53    34    50 1   
@<TRIPOS>SUBSTRUCTURE
     1 MNZ         1 TEMP              0 ****  ****    0 ROOT
