@<TRIPOS>MOLECULE
MO0
   42    41     1     0     0
SMALL
bcc


@<TRIPOS>ATOM
      1 OAB         -6.9010     1.1500    -0.4480 oh         1 MO0      -0.587800
      2 CAF         -5.6890     1.3050     0.2530 c3         1 MO0       0.100400
      3 CAG         -4.6570     0.3540    -0.3360 c3         1 MO0       0.115100
      4 OAC         -4.4470     0.6030    -1.7070 oh         1 MO0      -0.569800
      5 CAH         -3.3380     0.4130     0.4560 c3         1 MO0       0.084100
      6 OAM         -3.5500     0.0890     1.8160 oh         1 MO0      -0.592800
      7 CAI         -2.2450    -0.4640    -0.1660 c3         1 MO0       0.120100
      8 OAD         -2.6280    -1.8250    -0.1920 oh         1 MO0      -0.591800
      9 CAJ         -0.8980    -0.2960     0.5340 c3         1 MO0       0.115100
     10 OAE         -0.5480     1.0670     0.5310 oh         1 MO0      -0.631800
     11 CAK          0.2120    -1.0900    -0.1620 c3         1 MO0       0.128800
     12 N            1.4910    -0.6170     0.3390 n7         1 MO0      -0.838200
     13 CA           2.6340    -0.9540    -0.4900 c3         1 MO0       0.027500
     14 C            3.0330    -2.4500    -0.4540 c          1 MO0       0.909600
     15 OXT          3.7980    -2.8320    -1.3630 o          1 MO0      -0.831800
     16 CB           3.8420    -0.1010    -0.0940 c3         1 MO0      -0.046400
     17 CG           3.5950     1.3870    -0.2900 c3         1 MO0      -0.154400
     18 CD           4.7660     2.2530     0.1180 c          1 MO0       0.668100
     19 OE1          5.5100     1.9570     1.0440 o          1 MO0      -0.617100
     20 NE2          4.9120     3.3820    -0.5940 nt         1 MO0      -0.690000
     21 O            2.5890    -3.1380     0.4860 o          1 MO0      -0.831800
     22 H1          -7.5480     1.7400    -0.0530 ho         1 MO0       0.395000
     23 H2          -5.3070     2.3350     0.1790 h1         1 MO0       0.025200
     24 H3          -5.8120     1.0890     1.3200 h1         1 MO0       0.025200
     25 H4          -5.0500    -0.6680    -0.2790 h1         1 MO0       0.088700
     26 H5          -4.1630     1.5170    -1.8150 ho         1 MO0       0.395000
     27 H6          -2.9780     1.4480     0.4500 h1         1 MO0       0.089700
     28 H7          -4.0210    -0.7500     1.8650 ho         1 MO0       0.394000
     29 H8          -2.1190    -0.1610    -1.2090 h1         1 MO0       0.091700
     30 H9          -2.5290    -2.1940     0.6930 ho         1 MO0       0.398000
     31 H10         -0.9920    -0.6640     1.5710 h1         1 MO0       0.033700
     32 H11          0.4270     1.0430     0.5470 ho         1 MO0       0.446000
     33 H12          0.0650    -2.1660    -0.0360 h1         1 MO0       0.052700
     34 H13          0.1730    -0.8820    -1.2370 h1         1 MO0       0.052700
     35 H14          1.6480    -1.0170     1.2590 hn         1 MO0       0.368800
     36 H16          2.3720    -0.7010    -1.5250 h1         1 MO0       0.037700
     37 H18          4.1030    -0.3000     0.9490 hc         1 MO0       0.060200
     38 H19          4.6980    -0.4160    -0.6950 hc         1 MO0       0.060200
     39 H20          3.3160     1.5860    -1.3280 hc         1 MO0       0.050200
     40 H21          2.7380     1.6990     0.3150 hc         1 MO0       0.050200
     41 H22          4.2820     3.6230    -1.3400 hn         1 MO0       0.300000
     42 H23          5.6120     4.0610    -0.3400 hn         1 MO0       0.300000
@<TRIPOS>BOND
     1     1     2 1   
     2     1    22 1   
     3     2     3 1   
     4     2    23 1   
     5     2    24 1   
     6     3     4 1   
     7     3     5 1   
     8     3    25 1   
     9     4    26 1   
    10     5     6 1   
    11     5     7 1   
    12     5    27 1   
    13     6    28 1   
    14     7     8 1   
    15     7     9 1   
    16     7    29 1   
    17     8    30 1   
    18     9    10 1   
    19     9    11 1   
    20     9    31 1   
    21    10    32 1   
    22    11    12 1   
    23    11    33 1   
    24    11    34 1   
    25    12    13 1   
    26    12    35 1   
    27    13    14 1   
    28    13    16 1   
    29    13    36 1   
    30    14    15 1   
    31    14    21 1   
    32    16    17 1   
    33    16    37 1   
    34    16    38 1   
    35    17    18 1   
    36    17    39 1   
    37    17    40 1   
    38    18    19 2   
    39    18    20 1   
    40    20    41 1   
    41    20    42 1   
@<TRIPOS>SUBSTRUCTURE
     1 MO0         1 TEMP              0 ****  ****    0 ROOT
