@<TRIPOS>MOLECULE
MO0
   42    41     1     0     0
SMALL
No Charge or Current Charge


@<TRIPOS>ATOM
      1 OAB         -6.9290     1.5760    -0.6700 oh         1 MO0      -0.710000
      2 CAF         -5.9500     1.2090     0.3230 c3         1 MO0       0.123600
      3 CAG         -4.7540     0.4940    -0.3620 c3         1 MO0       0.138300
      4 OAC         -4.3870     1.2960    -1.4970 oh         1 MO0      -0.692000
      5 CAH         -3.5330     0.2860     0.5900 c3         1 MO0       0.107300
      6 OAM         -3.9280    -0.4970     1.7330 oh         1 MO0      -0.715000
      7 CAI         -2.3450    -0.4630    -0.0920 c3         1 MO0       0.143300
      8 OAD         -2.7110    -1.8630    -0.2110 oh         1 MO0      -0.714000
      9 CAJ         -1.0010    -0.3280     0.6980 c3         1 MO0       0.138300
     10 OAE         -0.5600     1.0290     0.7800 oh         1 MO0      -0.754000
     11 CAK          0.1960    -1.0750     0.0500 c3         1 MO0       0.128800
     12 N            1.4750    -0.4220     0.4720 n7         1 MO0      -0.893400
     13 CA           2.6820    -0.7940    -0.3440 c3         1 MO0       0.027500
     14 C            3.1070    -2.3150    -0.2410 c          1 MO0       0.699000
     15 OXT          3.1270    -2.9840    -1.2660 o          1 MO0      -0.726500
     16 CB           3.8700     0.1270     0.0360 c3         1 MO0      -0.046400
     17 CG           3.6410     1.6270    -0.2870 c3         1 MO0      -0.154400
     18 CD           4.8920     2.4560     0.0140 c          1 MO0       0.601100
     19 OE1          5.1730     2.8700     1.1260 o          1 MO0      -0.617100
     20 NE2          5.6990     2.7190    -1.0360 nt         1 MO0      -0.623000
     21 O            3.3390    -2.7840     0.8670 o          1 MO0      -0.726500
     22 H1          -7.7120     1.9340    -0.1870 ho         1 MO0       0.494000
     23 H2          -5.5890     2.1030     0.8490 h1         1 MO0       0.025200
     24 H3          -6.3950     0.5380     1.0690 h1         1 MO0       0.025200
     25 H4          -5.1030    -0.4940    -0.6980 h1         1 MO0       0.088700
     26 H5          -5.2460     1.7180    -1.7500 ho         1 MO0       0.494000
     27 H6          -3.1880     1.2800     0.9070 h1         1 MO0       0.089700
     28 H7          -3.6710    -1.4150     1.4630 ho         1 MO0       0.493000
     29 H8          -2.1860    -0.0200    -1.0860 h1         1 MO0       0.091700
     30 H9          -2.3570    -2.1920    -1.0710 ho         1 MO0       0.497000
     31 H10         -1.1410    -0.7260     1.7130 h1         1 MO0       0.033700
     32 H11          0.4230     0.8660     0.6400 ho         1 MO0       0.545000
     33 H12          0.1720    -2.1390     0.3280 h1         1 MO0       0.052700
     34 H13          0.0890    -1.0160    -1.0430 h1         1 MO0       0.052700
     35 H14          1.6700    -0.7150     1.4430 hn         1 MO0       0.424000
     36 H16          2.4630    -0.6080    -1.4050 h1         1 MO0       0.037700
     37 H18          4.0970     0.0130     1.1040 hc         1 MO0       0.060200
     38 H19          4.7590    -0.2150    -0.5090 hc         1 MO0       0.060200
     39 H20          3.3990     1.7010    -1.3540 hc         1 MO0       0.050200
     40 H21          2.8090     2.0020     0.3190 hc         1 MO0       0.050200
     41 H22          5.4620     2.3740    -1.9540 hn         1 MO0       0.300000
     42 H23          6.5370     3.2620    -0.8910 hn         1 MO0       0.300000
@<TRIPOS>BOND
     1     1     2 1   
     2     1    22 1   
     3     2     3 1   
     4     2    23 1   
     5     2    24 1   
     6     3     4 1   
     7     3     5 1   
     8     3    25 1   
     9     4    26 1   
    10     5     6 1   
    11     5     7 1   
    12     5    27 1   
    13     6    28 1   
    14     7     8 1   
    15     7     9 1   
    16     7    29 1   
    17     8    30 1   
    18     9    10 1   
    19     9    11 1   
    20     9    31 1   
    21    10    32 1   
    22    11    12 1   
    23    11    33 1   
    24    11    34 1   
    25    12    13 1   
    26    12    35 1   
    27    13    14 1   
    28    13    16 1   
    29    13    36 1   
    30    14    15 1   
    31    14    21 1   
    32    16    17 1   
    33    16    37 1   
    34    16    38 1   
    35    17    18 1   
    36    17    39 1   
    37    17    40 1   
    38    18    19 2   
    39    18    20 1   
    40    20    41 1   
    41    20    42 1   
@<TRIPOS>SUBSTRUCTURE
     1 MO0         1 TEMP              0 ****  ****    0 ROOT
