@<TRIPOS>MOLECULE
MO8
   23    24     1     0     0
SMALL
abcg2


@<TRIPOS>ATOM
      1 N11          3.5470    -1.1480    -0.2170 nv         1 MO8      -1.052900
      2 C9           2.3170    -0.5990    -0.0870 ca         1 MO8       0.381900
      3 N8           2.2530     0.7330    -0.0060 nb         1 MO8      -0.249000
      4 C7           1.0480     1.2750     0.0560 ca         1 MO8       0.177300
      5 C12          0.9820     2.7670     0.1560 c3         1 MO8      -0.156400
      6 C2          -0.1240     0.5040     0.0310 ca         1 MO8      -0.245300
      7 N10          1.2740    -1.4200    -0.0760 nb         1 MO8      -0.259000
      8 C3           0.0620    -0.8750    -0.0120 ca         1 MO8       0.180300
      9 C4          -1.0670    -1.8700    -0.0010 c6         1 MO8      -0.135700
     10 C5          -2.4020    -1.3180     0.4540 c6         1 MO8       0.060600
     11 S6          -2.8340     0.1600    -0.4940 ss         1 MO8      -0.424000
     12 C1          -1.4650     1.1820     0.0960 c6         1 MO8       0.129900
     13 HN11         4.3440    -0.5810     0.0140 hn         1 MO8       0.489500
     14 HN1A         3.6430    -2.1360    -0.0590 hn         1 MO8       0.489500
     15 H12          0.4960     3.1970    -0.7220 hc         1 MO8       0.057033
     16 H12A         0.4010     3.0810     1.0250 hc         1 MO8       0.057033
     17 H12B         1.9820     3.1870     0.2360 hc         1 MO8       0.057033
     18 H4          -1.1660    -2.2810    -1.0100 hc         1 MO8       0.076200
     19 H4A         -0.7720    -2.7050     0.6400 hc         1 MO8       0.076200
     20 H5          -3.1930    -2.0500     0.2970 h1         1 MO8       0.072700
     21 H5A         -2.3900    -1.0700     1.5180 h1         1 MO8       0.072700
     22 H1          -1.6820     1.5150     1.1150 h1         1 MO8       0.072200
     23 H1A         -1.4710     2.0740    -0.5340 h1         1 MO8       0.072200
@<TRIPOS>BOND
     1     1     2 1   
     2     1    13 1   
     3     1    14 1   
     4     2     3 ar  
     5     2     7 ar  
     6     3     4 ar  
     7     4     5 1   
     8     4     6 ar  
     9     5    15 1   
    10     5    16 1   
    11     5    17 1   
    12     6     8 ar  
    13     6    12 1   
    14     7     8 ar  
    15     8     9 1   
    16     9    10 1   
    17     9    18 1   
    18     9    19 1   
    19    10    11 1   
    20    10    20 1   
    21    10    21 1   
    22    11    12 1   
    23    12    22 1   
    24    12    23 1   
@<TRIPOS>SUBSTRUCTURE
     1 MO8         1 TEMP              0 ****  ****    0 ROOT
