@<TRIPOS>MOLECULE
MO8
   23    24     1     0     0
SMALL
No Charge or Current Charge


@<TRIPOS>ATOM
      1 N11          3.5520    -1.1520    -0.1650 nv         1 MO8      -1.052900
      2 C9           2.3200    -0.5900    -0.0970 ca         1 MO8       0.381900
      3 N8           2.2810     0.7450    -0.0350 nb         1 MO8      -0.249000
      4 C7           1.0580     1.3070     0.0340 ca         1 MO8       0.177300
      5 C12          1.0290     2.8270     0.1160 c3         1 MO8      -0.156400
      6 C2          -0.1200     0.5210     0.0360 ca         1 MO8      -0.245300
      7 N10          1.2850    -1.4360    -0.0910 nb         1 MO8      -0.259000
      8 C3           0.0550    -0.8880    -0.0200 ca         1 MO8       0.180300
      9 C4          -1.0850    -1.9120    -0.0310 c6         1 MO8      -0.135700
     10 C5          -2.4360    -1.3680     0.4570 c6         1 MO8       0.060600
     11 S6          -2.8860     0.1460    -0.4720 ss         1 MO8      -0.424000
     12 C1          -1.4980     1.1970     0.1330 c6         1 MO8       0.129900
     13 HN11         4.3620    -0.5730     0.0460 hn         1 MO8       0.489500
     14 HN1A         3.6440    -2.1510     0.0040 hn         1 MO8       0.489500
     15 H12          0.5890     3.2600    -0.7900 hc         1 MO8       0.057033
     16 H12A         0.4400     3.1650     0.9760 hc         1 MO8       0.057033
     17 H12B         2.0360     3.2500     0.2250 hc         1 MO8       0.057033
     18 H4          -1.2040    -2.2910    -1.0550 hc         1 MO8       0.076200
     19 H4A         -0.8120    -2.7810     0.5830 hc         1 MO8       0.076200
     20 H5          -3.2250    -2.1210     0.3130 h1         1 MO8       0.072700
     21 H5A         -2.3850    -1.1200     1.5270 h1         1 MO8       0.072700
     22 H1          -1.7020     1.4600     1.1810 h1         1 MO8       0.072200
     23 H1A         -1.5140     2.1260    -0.4550 h1         1 MO8       0.072200
@<TRIPOS>BOND
     1     1     2 1   
     2     1    13 1   
     3     1    14 1   
     4     2     3 ar  
     5     2     7 ar  
     6     3     4 ar  
     7     4     5 1   
     8     4     6 ar  
     9     5    15 1   
    10     5    16 1   
    11     5    17 1   
    12     6     8 ar  
    13     6    12 1   
    14     7     8 ar  
    15     8     9 1   
    16     9    10 1   
    17     9    18 1   
    18     9    19 1   
    19    10    11 1   
    20    10    20 1   
    21    10    21 1   
    22    11    12 1   
    23    12    22 1   
    24    12    23 1   
@<TRIPOS>SUBSTRUCTURE
     1 MO8         1 TEMP              0 ****  ****    0 ROOT
