@<TRIPOS>MOLECULE
MO9
   52    53     1     0     0
SMALL
bcc


@<TRIPOS>ATOM
      1 C1           4.2790    -0.5240    -0.2990 ca         1 MO9       0.141100
      2 C2           3.3960    -0.4200    -1.3730 ca         1 MO9      -0.096300
      3 C3           3.5330    -1.3060    -2.4370 ca         1 MO9      -0.081000
      4 C4           4.5240    -2.2730    -2.4380 ca         1 MO9      -0.136000
      5 C5           5.4000    -2.3540    -1.3650 ca         1 MO9      -0.091000
      6 C6           5.2880    -1.4770    -0.2960 ca         1 MO9      -0.159000
      7 C7           2.3140     0.6120    -1.3990 c3         1 MO9      -0.106300
      8 C9          -0.3860     1.2380    -0.9470 c3         1 MO9      -0.196600
      9 C10         -1.5220     1.2020     0.0590 c3         1 MO9       0.126100
     10 C12         -2.5780     2.2170    -0.3830 c          1 MO9       0.662100
     11 S8           0.8360    -0.0450    -0.5950 s6         1 MO9       0.993000
     12 O11         -2.0460    -0.1040     0.0240 os         1 MO9      -0.420900
     13 O13          0.4670    -1.2780    -1.2830 o          1 MO9      -0.577300
     14 O14          1.0480    -0.0900     0.8500 o          1 MO9      -0.577300
     15 N15         -2.4640     3.4270     0.1850 ns         1 MO9      -0.570900
     16 O16         -3.4010     1.9520    -1.2360 o          1 MO9      -0.559100
     17 C17         -3.3450     4.5020    -0.1820 c3         1 MO9       0.174100
     18 C18         -3.0920     4.9780    -1.5450 c1         1 MO9       0.189700
     19 C19         -3.0500    -0.3650     0.8820 c          1 MO9       0.776100
     20 N20         -3.4280    -1.6500     0.8400 n          1 MO9      -0.461800
     21 O21         -3.5330     0.4990     1.5870 o          1 MO9      -0.596000
     22 C22         -4.5110    -2.1280     1.6830 c6         1 MO9       0.069500
     23 C23         -5.4560    -2.9780     0.8520 c6         1 MO9       0.113400
     24 O24         -4.7780    -4.0260     0.1980 os         1 MO9      -0.399600
     25 C25         -3.7740    -3.5280    -0.6570 c6         1 MO9       0.113400
     26 C26         -2.7490    -2.7050     0.1030 c6         1 MO9       0.069500
     27 O27          4.1250     0.4070     0.6990 os         1 MO9      -0.381900
     28 C28          4.1700     0.0560     2.0090 c3         1 MO9       0.619700
     29 F29          5.4550    -0.0380     2.4390 f          1 MO9      -0.248300
     30 F30          3.6190    -1.1530     2.2220 f          1 MO9      -0.248300
     31 N31         -2.8950     5.3650    -2.6090 n1         1 MO9      -0.353800
     32 H3           2.8540    -1.2280    -3.2770 ha         1 MO9       0.142000
     33 H4           4.6190    -2.9520    -3.2740 ha         1 MO9       0.142000
     34 H5           6.1860    -3.0970    -1.3570 ha         1 MO9       0.139000
     35 H6           5.9980    -1.5410     0.5160 ha         1 MO9       0.156000
     36 H71          2.5760     1.5390    -0.8910 h1         1 MO9       0.102700
     37 H72          2.0200     0.8470    -2.4230 h1         1 MO9       0.102700
     38 H91          0.1270     2.2010    -0.8910 h1         1 MO9       0.114200
     39 H92         -0.7320     1.0830    -1.9700 h1         1 MO9       0.114200
     40 H10         -1.1430     1.4460     1.0550 h1         1 MO9       0.083700
     41 HN15        -1.7850     3.5960     0.9090 hn         1 MO9       0.328500
     42 H171        -4.3930     4.2070    -0.1090 h1         1 MO9       0.081700
     43 H172        -3.1890     5.3310     0.5060 h1         1 MO9       0.081700
     44 H221        -4.1000    -2.7160     2.5100 h1         1 MO9       0.070950
     45 H222        -5.0530    -1.2870     2.1080 h1         1 MO9       0.070950
     46 H231        -6.2110    -3.4270     1.4980 h1         1 MO9       0.057200
     47 H232        -5.9700    -2.3370     0.1210 h1         1 MO9       0.057200
     48 H251        -3.2840    -4.3840    -1.1230 h1         1 MO9       0.057200
     49 H252        -4.2150    -2.9130    -1.4540 h1         1 MO9       0.057200
     50 H261        -2.0220    -2.2940    -0.5910 h1         1 MO9       0.070950
     51 H262        -2.2080    -3.3420     0.8110 h1         1 MO9       0.070950
     52 H28          3.6570     0.8180     2.5930 h3         1 MO9       0.109700
@<TRIPOS>BOND
     1     1     2 ar  
     2     1     6 ar  
     3     1    27 1   
     4     2     3 ar  
     5     2     7 1   
     6     3     4 ar  
     7     3    32 1   
     8     4     5 ar  
     9     4    33 1   
    10     5     6 ar  
    11     5    34 1   
    12     6    35 1   
    13     7    11 1   
    14     7    36 1   
    15     7    37 1   
    16     8     9 1   
    17     8    11 1   
    18     8    38 1   
    19     8    39 1   
    20     9    10 1   
    21     9    12 1   
    22     9    40 1   
    23    10    15 1   
    24    10    16 2   
    25    11    13 2   
    26    11    14 2   
    27    12    19 1   
    28    15    17 1   
    29    15    41 1   
    30    17    18 1   
    31    17    42 1   
    32    17    43 1   
    33    18    31 3   
    34    19    20 1   
    35    19    21 2   
    36    20    22 1   
    37    20    26 1   
    38    22    23 1   
    39    22    44 1   
    40    22    45 1   
    41    23    24 1   
    42    23    46 1   
    43    23    47 1   
    44    24    25 1   
    45    25    26 1   
    46    25    48 1   
    47    25    49 1   
    48    26    50 1   
    49    26    51 1   
    50    27    28 1   
    51    28    29 1   
    52    28    30 1   
    53    28    52 1   
@<TRIPOS>SUBSTRUCTURE
     1 MO9         1 TEMP              0 ****  ****    0 ROOT
