@<TRIPOS>MOLECULE
MO9
   52    53     1     0     0
SMALL
No Charge or Current Charge


@<TRIPOS>ATOM
      1 C1           4.4420    -0.3820    -0.2800 ca         1 MO9       0.141100
      2 C2           3.4010    -0.7700    -1.1570 ca         1 MO9      -0.096300
      3 C3           3.4650    -2.0150    -1.8130 ca         1 MO9      -0.063000
      4 C4           4.5530    -2.8760    -1.5990 ca         1 MO9      -0.118000
      5 C5           5.5860    -2.4980    -0.7290 ca         1 MO9      -0.073000
      6 C6           5.5340    -1.2580    -0.0710 ca         1 MO9      -0.141000
      7 C7           2.1960     0.1410    -1.4120 c3         1 MO9      -0.217100
      8 C9          -0.4420     1.0460    -0.8360 c3         1 MO9      -0.307400
      9 C10         -1.6800     1.0870     0.0910 c3         1 MO9       0.149300
     10 C12         -2.5680     2.3420    -0.1930 c          1 MO9       0.595100
     11 S8           0.7850    -0.1680    -0.3220 s6         1 MO9       1.073000
     12 O11         -2.3950    -0.1460    -0.1490 os         1 MO9      -0.444100
     13 O13          0.2670    -1.5080    -0.6240 o          1 MO9      -0.506500
     14 O14          1.1820     0.1590     1.0540 o          1 MO9      -0.506500
     15 N15         -2.2240     3.4770     0.5150 ns         1 MO9      -0.503900
     16 O16         -3.5330     2.3330    -0.9480 o          1 MO9      -0.559100
     17 C17         -2.9350     4.7650     0.4150 c3         1 MO9       0.174100
     18 C18         -2.4820     5.5600    -0.7390 c1         1 MO9       0.278900
     19 C19         -3.4300    -0.4760     0.6850 c          1 MO9       0.660100
     20 N20         -4.0360    -1.6930     0.3220 n          1 MO9      -0.394800
     21 O21         -3.7870     0.1970     1.6420 o          1 MO9      -0.547000
     22 C22         -5.0480    -2.3150     1.2340 c6         1 MO9       0.069500
     23 C23         -5.8440    -3.4980     0.6280 c6         1 MO9       0.136600
     24 O24         -4.9640    -4.3940    -0.0750 os         1 MO9      -0.446000
     25 C25         -4.3250    -3.7560    -1.1960 c6         1 MO9       0.136600
     26 C26         -3.4280    -2.5830    -0.7240 c6         1 MO9       0.069500
     27 O27          4.3410     0.8540     0.3400 os         1 MO9      -0.405100
     28 C28          5.3020     1.3810     1.2800 c3         1 MO9       0.400300
     29 F29          6.5260     1.5100     0.7150 f          1 MO9      -0.127000
     30 F30          5.4380     0.5700     2.3560 f          1 MO9      -0.127000
     31 N31         -2.0980     6.1760    -1.6530 n1         1 MO9      -0.443000
     32 H3           2.6680    -2.3190    -2.4880 ha         1 MO9       0.124000
     33 H4           4.5940    -3.8370    -2.1080 ha         1 MO9       0.124000
     34 H5           6.4290    -3.1660    -0.5650 ha         1 MO9       0.121000
     35 H6           6.3520    -0.9990     0.5930 ha         1 MO9       0.138000
     36 H71          2.4630     1.1940    -1.2760 h1         1 MO9       0.102700
     37 H72          1.8220     0.0060    -2.4330 h1         1 MO9       0.102700
     38 H91          0.0750     2.0130    -0.8260 h1         1 MO9       0.114200
     39 H92         -0.7280     0.7960    -1.8640 h1         1 MO9       0.114200
     40 H10         -1.3530     1.1480     1.1390 h1         1 MO9       0.083700
     41 HN15        -1.4240     3.4160     1.1370 hn         1 MO9       0.328500
     42 H171        -4.0140     4.5890     0.3270 h1         1 MO9       0.081700
     43 H172        -2.7600     5.3450     1.3310 h1         1 MO9       0.081700
     44 H221        -4.5270    -2.6720     2.1340 h1         1 MO9       0.070950
     45 H222        -5.7630    -1.5480     1.5630 h1         1 MO9       0.070950
     46 H231        -6.3610    -4.0490     1.4260 h1         1 MO9       0.057200
     47 H232        -6.6050    -3.1190    -0.0690 h1         1 MO9       0.057200
     48 H251        -3.7190    -4.4960    -1.7380 h1         1 MO9       0.057200
     49 H252        -5.0960    -3.3820    -1.8840 h1         1 MO9       0.057200
     50 H261        -3.1610    -1.9860    -1.6080 h1         1 MO9       0.070950
     51 H262        -2.4920    -2.9970    -0.3240 h1         1 MO9       0.070950
     52 H28          4.9820     2.3670     1.6320 h3         1 MO9       0.109700
@<TRIPOS>BOND
     1     1     2 ar  
     2     1     6 ar  
     3     1    27 1   
     4     2     3 ar  
     5     2     7 1   
     6     3     4 ar  
     7     3    32 1   
     8     4     5 ar  
     9     4    33 1   
    10     5     6 ar  
    11     5    34 1   
    12     6    35 1   
    13     7    11 1   
    14     7    36 1   
    15     7    37 1   
    16     8     9 1   
    17     8    11 1   
    18     8    38 1   
    19     8    39 1   
    20     9    10 1   
    21     9    12 1   
    22     9    40 1   
    23    10    15 1   
    24    10    16 2   
    25    11    13 2   
    26    11    14 2   
    27    12    19 1   
    28    15    17 1   
    29    15    41 1   
    30    17    18 1   
    31    17    42 1   
    32    17    43 1   
    33    18    31 3   
    34    19    20 1   
    35    19    21 2   
    36    20    22 1   
    37    20    26 1   
    38    22    23 1   
    39    22    44 1   
    40    22    45 1   
    41    23    24 1   
    42    23    46 1   
    43    23    47 1   
    44    24    25 1   
    45    25    26 1   
    46    25    48 1   
    47    25    49 1   
    48    26    50 1   
    49    26    51 1   
    50    27    28 1   
    51    28    29 1   
    52    28    30 1   
    53    28    52 1   
@<TRIPOS>SUBSTRUCTURE
     1 MO9         1 TEMP              0 ****  ****    0 ROOT
