@<TRIPOS>MOLECULE
MOA
   42    43     1     0     0
SMALL
bcc


@<TRIPOS>ATOM
      1 C1          -2.0730    -0.6880    -3.2850 c          1 MOA       0.761200
      2 C2           0.2910     0.3120     1.5660 c2         1 MOA      -0.266200
      3 C3          -0.4330     0.8640     2.5490 c2         1 MOA      -0.062400
      4 C4          -0.9930     0.0040     3.6500 c3         1 MOA      -0.036200
      5 C5          -0.2540     0.2040     4.9710 c3         1 MOA      -0.203400
      6 C6          -0.7880    -0.6260     6.1530 c          1 MOA       0.927600
      7 C7           2.6700    -0.9980    -3.9370 c3         1 MOA      -0.033800
      8 C8           3.6310     1.3880    -1.7650 c3         1 MOA       0.129700
      9 C9          -0.7050     2.3350     2.6770 c3         1 MOA      -0.067900
     10 C10         -0.3410    -1.3030    -4.6620 c5         1 MOA       0.180700
     11 C11          0.2290    -0.7360    -3.4040 ca         1 MOA      -0.069300
     12 C12          1.5490    -0.5800    -3.0330 ca         1 MOA      -0.126300
     13 C13          1.7540    -0.0080    -1.7690 ca         1 MOA       0.166100
     14 C14          0.7110     0.3750    -0.9110 ca         1 MOA      -0.178300
     15 C15         -0.6110     0.1770    -1.3300 ca         1 MOA       0.245100
     16 C16         -0.8270    -0.3730    -2.5900 ca         1 MOA      -0.248600
     17 C17          0.9870     1.0130     0.4310 c3         1 MOA       0.009100
     18 O1          -3.2190    -0.5410    -2.9530 o          1 MOA      -0.549500
     19 O2          -1.7540    -1.2220    -4.4810 os         1 MOA      -0.418900
     20 O3           3.0330     0.1680    -1.3440 os         1 MOA      -0.339900
     21 O4          -1.6740     0.5100    -0.5890 oh         1 MOA      -0.476100
     22 O5          -0.0420    -0.6930     7.1520 o          1 MOA      -0.841800
     23 O6          -1.9160    -1.1440     6.0370 o          1 MOA      -0.841800
     24 H21          0.4330    -0.7660     1.5890 ha         1 MOA       0.134000
     25 H41         -2.0510     0.2390     3.7920 hc         1 MOA       0.054700
     26 H42         -0.9410    -1.0470     3.3580 hc         1 MOA       0.054700
     27 H51          0.8080    -0.0170     4.8320 hc         1 MOA       0.019200
     28 H52         -0.2930     1.2590     5.2670 hc         1 MOA       0.019200
     29 H71          2.4420    -1.9450    -4.4280 hc         1 MOA       0.041367
     30 H72          2.8390    -0.2620    -4.7260 hc         1 MOA       0.041367
     31 H73          3.6060    -1.1250    -3.3980 hc         1 MOA       0.041367
     32 H81          4.6540     1.3880    -1.3950 h1         1 MOA       0.035033
     33 H82          3.6490     1.4760    -2.8540 h1         1 MOA       0.035033
     34 H83          3.1050     2.2540    -1.3540 h1         1 MOA       0.035033
     35 H91         -0.4830     2.9010     1.7750 hc         1 MOA       0.039367
     36 H92         -1.7510     2.5080     2.9360 hc         1 MOA       0.039367
     37 H93         -0.1090     2.7670     3.4850 hc         1 MOA       0.039367
     38 H1O1        -0.0600    -0.7330    -5.5500 h1         1 MOA       0.067200
     39 H102        -0.0600    -2.3460    -4.8220 h1         1 MOA       0.067200
     40 H171         2.0600     0.9930     0.6240 hc         1 MOA       0.056700
     41 H172         0.7150     2.0710     0.3930 hc         1 MOA       0.056700
     42 HO41        -1.4180     0.6110     0.3430 ho         1 MOA       0.464000
@<TRIPOS>BOND
     1     1    16 1   
     2     1    18 2   
     3     1    19 1   
     4     2     3 2   
     5     2    17 1   
     6     2    24 1   
     7     3     4 1   
     8     3     9 1   
     9     4     5 1   
    10     4    25 1   
    11     4    26 1   
    12     5     6 1   
    13     5    27 1   
    14     5    28 1   
    15     6    22 1   
    16     6    23 1   
    17     7    12 1   
    18     7    29 1   
    19     7    30 1   
    20     7    31 1   
    21     8    20 1   
    22     8    32 1   
    23     8    33 1   
    24     8    34 1   
    25     9    35 1   
    26     9    36 1   
    27     9    37 1   
    28    10    11 1   
    29    10    19 1   
    30    10    38 1   
    31    10    39 1   
    32    11    12 ar  
    33    11    16 ar  
    34    12    13 ar  
    35    13    14 ar  
    36    13    20 1   
    37    14    15 ar  
    38    14    17 1   
    39    15    16 ar  
    40    15    21 1   
    41    17    40 1   
    42    17    41 1   
    43    21    42 1   
@<TRIPOS>SUBSTRUCTURE
     1 MOA         1 TEMP              0 ****  ****    0 ROOT
