@<TRIPOS>MOLECULE
MOA
   42    43     1     0     0
SMALL
No Charge or Current Charge


@<TRIPOS>ATOM
      1 C1          -2.0980    -0.7580    -3.1100 c          1 MOA       0.685700
      2 C2           0.4680     0.3210     1.6580 c2         1 MOA      -0.316200
      3 C3          -0.4050     0.8450     2.5420 c2         1 MOA      -0.062400
      4 C4          -0.9920     0.0080     3.6720 c3         1 MOA      -0.036200
      5 C5          -0.3630     0.3170     5.0540 c3         1 MOA      -0.203400
      6 C6          -0.9460    -0.6260     6.1210 c          1 MOA       0.717000
      7 C7           2.6460    -0.9640    -4.0420 c3         1 MOA      -0.033800
      8 C8           3.7740     1.4850    -1.8870 c3         1 MOA       0.152900
      9 C9          -0.9290     2.2780     2.5370 c3         1 MOA      -0.067900
     10 C10         -0.4250    -1.3490    -4.6170 c5         1 MOA       0.203900
     11 C11          0.1980    -0.7750    -3.3660 ca         1 MOA      -0.069300
     12 C12          1.5520    -0.5750    -3.0490 ca         1 MOA      -0.126300
     13 C13          1.8590     0.0070    -1.7930 ca         1 MOA       0.166100
     14 C14          0.8320     0.3500    -0.8680 ca         1 MOA      -0.178300
     15 C15         -0.5160     0.1260    -1.2360 ca         1 MOA       0.245100
     16 C16         -0.7950    -0.4300    -2.4870 ca         1 MOA      -0.248600
     17 C17          1.1700     0.9940     0.4870 c3         1 MOA       0.009100
     18 O1          -3.2080    -0.5900    -2.6270 o          1 MOA      -0.474000
     19 O2          -1.8660    -1.2930    -4.3610 os         1 MOA      -0.442100
     20 O3           3.1740     0.2480    -1.4720 os         1 MOA      -0.363100
     21 O4          -1.5250     0.4460    -0.3830 oh         1 MOA      -0.515100
     22 O5          -0.3950    -1.7010     6.3030 o          1 MOA      -0.736500
     23 O6          -1.9630    -0.2800     6.7020 o          1 MOA      -0.736500
     24 H21          0.7710    -0.7230     1.7730 ha         1 MOA       0.184000
     25 H41         -2.0800     0.1450     3.7250 hc         1 MOA       0.054700
     26 H42         -0.8400    -1.0580     3.4610 hc         1 MOA       0.054700
     27 H51          0.7140     0.1460     4.9370 hc         1 MOA       0.019200
     28 H52         -0.6230     1.3570     5.2860 hc         1 MOA       0.019200
     29 H71          2.3290    -1.7840    -4.6980 hc         1 MOA       0.041367
     30 H72          2.9150    -0.1140    -4.6800 hc         1 MOA       0.041367
     31 H73          3.5550    -1.3020    -3.5310 hc         1 MOA       0.041367
     32 H81          4.8190     1.5310    -1.5580 h1         1 MOA       0.035033
     33 H82          3.7520     1.5820    -2.9800 h1         1 MOA       0.035033
     34 H83          3.2380     2.3390    -1.4530 h1         1 MOA       0.035033
     35 H91         -0.6150     2.8540     1.6630 hc         1 MOA       0.039367
     36 H92         -2.0250     2.2940     2.5450 hc         1 MOA       0.039367
     37 H93         -0.5850     2.8270     3.4210 hc         1 MOA       0.039367
     38 H1O1        -0.1830    -0.7520    -5.5060 h1         1 MOA       0.067200
     39 H102        -0.1210    -2.3910    -4.7840 h1         1 MOA       0.067200
     40 H171         2.2470     0.9480     0.6850 hc         1 MOA       0.056700
     41 H172         0.9520     2.0660     0.4320 hc         1 MOA       0.056700
     42 HO41        -1.0960     0.6160     0.4860 ho         1 MOA       0.503000
@<TRIPOS>BOND
     1     1    16 1   
     2     1    18 2   
     3     1    19 1   
     4     2     3 2   
     5     2    17 1   
     6     2    24 1   
     7     3     4 1   
     8     3     9 1   
     9     4     5 1   
    10     4    25 1   
    11     4    26 1   
    12     5     6 1   
    13     5    27 1   
    14     5    28 1   
    15     6    22 1   
    16     6    23 1   
    17     7    12 1   
    18     7    29 1   
    19     7    30 1   
    20     7    31 1   
    21     8    20 1   
    22     8    32 1   
    23     8    33 1   
    24     8    34 1   
    25     9    35 1   
    26     9    36 1   
    27     9    37 1   
    28    10    11 1   
    29    10    19 1   
    30    10    38 1   
    31    10    39 1   
    32    11    12 ar  
    33    11    16 ar  
    34    12    13 ar  
    35    13    14 ar  
    36    13    20 1   
    37    14    15 ar  
    38    14    17 1   
    39    15    16 ar  
    40    15    21 1   
    41    17    40 1   
    42    17    41 1   
    43    21    42 1   
@<TRIPOS>SUBSTRUCTURE
     1 MOA         1 TEMP              0 ****  ****    0 ROOT
