@<TRIPOS>MOLECULE
MOB
   35    36     1     0     0
SMALL
No Charge or Current Charge


@<TRIPOS>ATOM
      1 C1           1.1420    -0.2780    -2.5100 ca         1 MOB       0.082400
      2 C2           0.1690    -0.0380    -3.5110 ca         1 MOB      -0.075600
      3 C3           0.5890     0.2200    -4.8350 ca         1 MOB      -0.103000
      4 C4           1.9550     0.2230    -5.1650 ca         1 MOB      -0.121000
      5 C5           2.9150    -0.0280    -4.1740 ca         1 MOB      -0.151000
      6 C6           2.5090    -0.2760    -2.8530 ca         1 MOB      -0.111000
      7 C7           0.3150     0.2850     0.9080 ca         1 MOB       0.139400
      8 C8           1.3060     0.1520     1.8940 ca         1 MOB      -0.163000
      9 C9           0.9460    -0.0760     3.2410 ca         1 MOB       0.089100
     10 C10         -0.4250    -0.1680     3.5850 ca         1 MOB       0.071100
     11 C11         -1.4190    -0.0310     2.5930 ca         1 MOB       0.089100
     12 C12         -1.0430     0.1970     1.2530 ca         1 MOB      -0.163000
     13 C           -1.3060    -0.0420    -3.1910 c          1 MOB       0.717600
     14 CHX          3.3110    -0.1370     3.9770 c3         1 MOB       0.152400
     15 CHZ         -3.8330    -0.0080     2.0490 c3         1 MOB       0.152400
     16 N1           0.7760    -0.5110    -1.1690 ne         1 MOB      -0.118400
     17 N2           0.6870     0.5190    -0.4360 nf         1 MOB      -0.246400
     18 O           -1.9650     0.9370    -3.5150 o          1 MOB      -0.711500
     19 OXT         -1.8000    -1.0560    -2.7170 o          1 MOB      -0.711500
     20 O3           1.8980    -0.2140     4.2390 os         1 MOB      -0.355100
     21 O4          -0.8130    -0.3890     4.8840 oh         1 MOB      -0.528100
     22 O5          -2.7450    -0.1280     2.9840 os         1 MOB      -0.355100
     23 H3          -0.1500     0.4120    -5.6100 ha         1 MOB       0.126000
     24 H4           2.2670     0.4190    -6.1890 ha         1 MOB       0.089000
     25 H5           3.9730    -0.0260    -4.4280 ha         1 MOB       0.088000
     26 H6           3.2580    -0.4620    -2.0870 ha         1 MOB       0.105000
     27 H2           2.3460     0.2280     1.5930 ha         1 MOB       0.150500
     28 H1          -1.7850     0.3060     0.4680 ha         1 MOB       0.150500
     29 H31          3.8780    -0.2740     4.9060 h1         1 MOB       0.040033
     30 H32          3.6210    -0.9200     3.2720 h1         1 MOB       0.040033
     31 H33          3.5780     0.8410     3.5580 h1         1 MOB       0.040033
     32 H51         -4.7930    -0.1180     2.5680 h1         1 MOB       0.040033
     33 H52         -3.8220     0.9750     1.5600 h1         1 MOB       0.040033
     34 H53         -3.7730    -0.7870     1.2780 h1         1 MOB       0.040033
     35 HO4         -1.7950    -0.4140     4.8850 ho         1 MOB       0.469000
@<TRIPOS>BOND
     1     1     2 ar  
     2     1     6 ar  
     3     1    16 1   
     4     2     3 ar  
     5     2    13 1   
     6     3     4 ar  
     7     3    23 1   
     8     4     5 ar  
     9     4    24 1   
    10     5     6 ar  
    11     5    25 1   
    12     6    26 1   
    13     7     8 ar  
    14     7    12 ar  
    15     7    17 1   
    16     8     9 ar  
    17     8    27 1   
    18     9    10 ar  
    19     9    20 1   
    20    10    11 ar  
    21    10    21 1   
    22    11    12 ar  
    23    11    22 1   
    24    12    28 1   
    25    13    18 1   
    26    13    19 1   
    27    14    20 1   
    28    14    29 1   
    29    14    30 1   
    30    14    31 1   
    31    15    22 1   
    32    15    32 1   
    33    15    33 1   
    34    15    34 1   
    35    16    17 2   
    36    21    35 1   
@<TRIPOS>SUBSTRUCTURE
     1 MOB         1 TEMP              0 ****  ****    0 ROOT
