@<TRIPOS>MOLECULE
MOB
   35    36     1     0     0
SMALL
abcg2


@<TRIPOS>ATOM
      1 C1           0.8620    -0.0720    -2.5490 ca         1 MOB       0.082400
      2 C2          -0.0120     0.1800    -3.6130 ca         1 MOB      -0.075600
      3 C3           0.5070     0.1650    -4.9040 ca         1 MOB      -0.103000
      4 C4           1.8560    -0.0620    -5.1410 ca         1 MOB      -0.121000
      5 C5           2.7120    -0.3090    -4.0740 ca         1 MOB      -0.151000
      6 C6           2.2130    -0.3230    -2.7850 ca         1 MOB      -0.111000
      7 C7           0.5360     0.0530     0.9470 ca         1 MOB       0.139400
      8 C8           1.4520     0.1180     1.9910 ca         1 MOB      -0.163000
      9 C9           1.0140     0.0040     3.3040 ca         1 MOB       0.089100
     10 C10         -0.3500    -0.1430     3.5670 ca         1 MOB       0.071100
     11 C11         -1.2630    -0.1810     2.5030 ca         1 MOB       0.089100
     12 C12         -0.8280    -0.0880     1.1930 ca         1 MOB      -0.163000
     13 C           -1.4770     0.5320    -3.3930 c          1 MOB       0.717600
     14 CHX          3.2030     0.1680     4.1860 c3         1 MOB       0.152400
     15 CHZ         -3.5560    -0.3080     1.8940 c3         1 MOB       0.152400
     16 N1           0.3200    -0.1770    -1.2540 ne         1 MOB      -0.118400
     17 N2           1.0760     0.1790    -0.3440 nf         1 MOB      -0.246400
     18 O           -1.7340     1.2420    -2.4050 o          1 MOB      -0.711500
     19 OXT         -2.2770     0.1060    -4.2500 o          1 MOB      -0.711500
     20 O3           1.8110     0.0320     4.3880 os         1 MOB      -0.355100
     21 O4          -0.7460    -0.2310     4.8490 oh         1 MOB      -0.528100
     22 O5          -2.5500    -0.3110     2.8880 os         1 MOB      -0.355100
     23 H3          -0.1580     0.3470    -5.7390 ha         1 MOB       0.126000
     24 H4           2.2340    -0.0590    -6.1550 ha         1 MOB       0.089000
     25 H5           3.7620    -0.5060    -4.2480 ha         1 MOB       0.088000
     26 H6           2.8660    -0.5480    -1.9520 ha         1 MOB       0.105000
     27 H2           2.4980     0.2470     1.7510 ha         1 MOB       0.150500
     28 H1          -1.5140    -0.1020     0.3570 ha         1 MOB       0.150500
     29 H31          3.6610     0.1500     5.1730 h1         1 MOB       0.040033
     30 H32          3.6110    -0.6550     3.5940 h1         1 MOB       0.040033
     31 H33          3.4560     1.1130     3.6990 h1         1 MOB       0.040033
     32 H51         -4.5050    -0.4100     2.4130 h1         1 MOB       0.040033
     33 H52         -3.5620     0.6280     1.3290 h1         1 MOB       0.040033
     34 H53         -3.4400    -1.1420     1.1980 h1         1 MOB       0.040033
     35 HO4         -1.7080    -0.3040     4.8900 ho         1 MOB       0.469000
@<TRIPOS>BOND
     1     1     2 ar  
     2     1     6 ar  
     3     1    16 1   
     4     2     3 ar  
     5     2    13 1   
     6     3     4 ar  
     7     3    23 1   
     8     4     5 ar  
     9     4    24 1   
    10     5     6 ar  
    11     5    25 1   
    12     6    26 1   
    13     7     8 ar  
    14     7    12 ar  
    15     7    17 1   
    16     8     9 ar  
    17     8    27 1   
    18     9    10 ar  
    19     9    20 1   
    20    10    11 ar  
    21    10    21 1   
    22    11    12 ar  
    23    11    22 1   
    24    12    28 1   
    25    13    18 1   
    26    13    19 1   
    27    14    20 1   
    28    14    29 1   
    29    14    30 1   
    30    14    31 1   
    31    15    22 1   
    32    15    32 1   
    33    15    33 1   
    34    15    34 1   
    35    16    17 2   
    36    21    35 1   
@<TRIPOS>SUBSTRUCTURE
     1 MOB         1 TEMP              0 ****  ****    0 ROOT
