@<TRIPOS>MOLECULE
MOD
   56    58     1     0     0
SMALL
No Charge or Current Charge


@<TRIPOS>ATOM
      1 N2          -4.1690     1.9780     1.0790 n8         1 MOD      -0.962200
      2 CA          -2.9460     1.5300     0.3560 c3         1 MOD       0.153500
      3 CB          -2.8730    -0.0160     0.3420 c3         1 MOD      -0.112400
      4 CG          -2.6320    -0.6410     1.7320 c3         1 MOD       0.072600
      5 SD          -2.3010    -2.4520     1.5700 ss         1 MOD      -0.472000
      6 CE          -1.8280    -2.8480     3.3140 c3         1 MOD       0.043900
      7 C9          -2.8290     2.1330    -1.0850 c3         1 MOD       0.237600
      8 O1          -2.5620     3.5430    -0.9980 os         1 MOD      -0.583400
      9 P1          -1.7420     4.2890    -2.1690 p5         1 MOD       1.403800
     10 O1S         -1.6400     3.4720    -3.4140 o          1 MOD      -0.828500
     11 O2S         -2.3590     5.6190    -2.4510 o          1 MOD      -0.828500
     12 O5          -0.3040     4.4920    -1.4570 os         1 MOD      -0.573400
     13 C5           0.7240     3.4860    -1.4180 c3         1 MOD       0.218600
     14 C4           0.5290     2.5540    -0.1880 c5         1 MOD       0.145300
     15 O4           0.1870     1.2180    -0.6560 os         1 MOD      -0.441000
     16 C3           1.8070     2.3780     0.7220 c5         1 MOD       0.098300
     17 O3           1.4850     2.3260     2.1180 oh         1 MOD      -0.711000
     18 C2           2.3210     0.9920     0.2490 c5         1 MOD       0.086300
     19 O2           3.2290     0.3760     1.1880 oh         1 MOD      -0.702000
     20 C1           0.9420     0.2730     0.1050 c5         1 MOD       0.457500
     21 N9           1.2200    -0.9610    -0.6550 nh         1 MOD      -0.755600
     22 C8           0.3550    -1.2540    -1.6960 c2         1 MOD       0.630100
     23 N7           0.1510    -2.5180    -1.8880 ne         1 MOD      -0.605300
     24 C7           0.8980    -3.1710    -0.9030 ce         1 MOD      -0.060600
     25 C6           1.4420    -4.3880    -0.9630 c2         1 MOD       0.236000
     26 N6           1.3450    -5.3850    -1.8860 nv         1 MOD      -0.907000
     27 N1           2.4030    -4.6410    -0.0480 nu         1 MOD      -0.796200
     28 C11          3.0620    -3.6300     0.6610 c2         1 MOD       0.598100
     29 N3           2.6850    -2.3820     0.7060 n2         1 MOD      -0.620900
     30 C10          1.3100    -2.1750     0.1630 c5         1 MOD       0.416900
     31 HN21        -4.9990     1.6520     0.5740 hn         1 MOD       0.374000
     32 HN22        -4.2250     1.5030     1.9850 hn         1 MOD       0.374000
     33 HA          -2.0800     1.8870     0.9280 h1         1 MOD       0.069700
     34 HB1         -2.0500    -0.3240    -0.3130 hc         1 MOD       0.056700
     35 HB2         -3.7880    -0.4330    -0.0970 hc         1 MOD       0.056700
     36 HG1         -3.5060    -0.4890     2.3790 h1         1 MOD       0.058200
     37 HG2         -1.7620    -0.1660     2.2040 h1         1 MOD       0.058200
     38 HE1         -2.6580    -2.6050     3.9900 h1         1 MOD       0.055033
     39 HE2         -1.5950    -3.9170     3.4010 h1         1 MOD       0.055033
     40 HE3         -0.9440    -2.2640     3.6030 h1         1 MOD       0.055033
     41 H91         -2.0300     1.6170    -1.6310 h1         1 MOD       0.024700
     42 H92         -3.7630     1.9530    -1.6330 h1         1 MOD       0.024700
     43 H5'1         0.7260     2.8860    -2.3380 h1         1 MOD       0.024700
     44 H5'2         1.7040     3.9730    -1.3510 h1         1 MOD       0.024700
     45 H4          -0.2950     2.9510     0.4170 h1         1 MOD       0.093700
     46 H3           2.5540     3.1630     0.5370 h1         1 MOD       0.046700
     47 H2           2.1920     1.7550     2.5100 ho         1 MOD       0.506000
     48 H1           2.8000     1.0800    -0.7370 h1         1 MOD       0.060700
     49 H10          3.1800    -0.6000     0.9900 ho         1 MOD       0.499000
     50 H11          0.4690     0.0920     1.0820 h2         1 MOD       0.087700
     51 H8          -0.0500    -0.4590    -2.3310 h5         1 MOD       0.088800
     52 HN61         0.6710    -5.1980    -2.6240 hn         1 MOD       0.443500
     53 HN62         1.3060    -6.3330    -1.5240 hn         1 MOD       0.443500
     54 HN1          2.9500    -5.4860    -0.1790 hn         1 MOD       0.476000
     55 H7           4.0130    -3.9570     1.0860 h5         1 MOD       0.025800
     56 H6           0.5820    -2.1560     0.9870 h2         1 MOD       0.079700
@<TRIPOS>BOND
     1     1     2 1   
     2     1    31 1   
     3     1    32 1   
     4     2     3 1   
     5     2     7 1   
     6     2    33 1   
     7     3     4 1   
     8     3    34 1   
     9     3    35 1   
    10     4     5 1   
    11     4    36 1   
    12     4    37 1   
    13     5     6 1   
    14     6    38 1   
    15     6    39 1   
    16     6    40 1   
    17     7     8 1   
    18     7    41 1   
    19     7    42 1   
    20     8     9 1   
    21     9    10 1   
    22     9    11 1   
    23     9    12 1   
    24    12    13 1   
    25    13    14 1   
    26    13    43 1   
    27    13    44 1   
    28    14    15 1   
    29    14    16 1   
    30    14    45 1   
    31    15    20 1   
    32    16    17 1   
    33    16    18 1   
    34    16    46 1   
    35    17    47 1   
    36    18    19 1   
    37    18    20 1   
    38    18    48 1   
    39    19    49 1   
    40    20    21 1   
    41    20    50 1   
    42    21    22 1   
    43    21    30 1   
    44    22    23 2   
    45    22    51 1   
    46    23    24 1   
    47    24    25 2   
    48    24    30 1   
    49    25    26 1   
    50    25    27 1   
    51    26    52 1   
    52    26    53 1   
    53    27    28 1   
    54    27    54 1   
    55    28    29 2   
    56    28    55 1   
    57    29    30 1   
    58    30    56 1   
@<TRIPOS>SUBSTRUCTURE
     1 MOD         1 TEMP              0 ****  ****    0 ROOT
