@<TRIPOS>MOLECULE
MOD
   56    58     1     0     0
SMALL
abcg2


@<TRIPOS>ATOM
      1 N2          -3.5090     0.6810     1.1950 n8         1 MOD      -0.962200
      2 CA          -2.6700    -0.0370     0.2470 c3         1 MOD       0.153500
      3 CB          -3.1370    -1.4620    -0.0770 c3         1 MOD      -0.112400
      4 CG          -3.0840    -2.3580     1.1490 c3         1 MOD       0.072600
      5 SD          -3.5120    -4.0690     0.7190 ss         1 MOD      -0.472000
      6 CE          -3.1740    -4.8650     2.3050 c3         1 MOD       0.043900
      7 C9          -2.5260     0.7660    -1.0350 c3         1 MOD       0.237600
      8 O1          -1.8080     1.9510    -0.7610 os         1 MOD      -0.583400
      9 P1          -1.5160     2.9900    -1.9910 p5         1 MOD       1.403800
     10 O1S         -0.7800     2.2970    -3.0990 o          1 MOD      -0.828500
     11 O2S         -2.7650     3.7640    -2.2830 o          1 MOD      -0.828500
     12 O5          -0.5260     4.0190    -1.1840 os         1 MOD      -0.573400
     13 C5           0.8800     3.9540    -1.2730 c3         1 MOD       0.218600
     14 C4           1.5080     3.5540     0.0520 c5         1 MOD       0.145300
     15 O4           1.0730     2.2650     0.4690 os         1 MOD      -0.441000
     16 C3           3.0260     3.4670    -0.0560 c5         1 MOD       0.098300
     17 O3           3.5900     3.7280     1.2040 oh         1 MOD      -0.711000
     18 C2           3.2110     1.9980    -0.4460 c5         1 MOD       0.086300
     19 O2           4.4610     1.4600    -0.1230 oh         1 MOD      -0.702000
     20 C1           2.1210     1.3200     0.3850 c5         1 MOD       0.457500
     21 N9           1.6660     0.0750    -0.1420 nh         1 MOD      -0.755600
     22 C8           1.0190    -0.0420    -1.3500 c2         1 MOD       0.630100
     23 N7           0.3180    -1.1040    -1.5160 ne         1 MOD      -0.605300
     24 C7           0.4230    -1.7940    -0.3090 ce         1 MOD      -0.060600
     25 C6           0.1730    -3.0790    -0.0420 c2         1 MOD       0.236000
     26 N6          -0.3670    -4.0380    -0.8910 nv         1 MOD      -0.907000
     27 N1           0.6300    -3.5350     1.2040 nu         1 MOD      -0.796200
     28 C11          1.7070    -2.8860     1.7610 c2         1 MOD       0.598100
     29 N3           2.0480    -1.6820     1.5310 n2         1 MOD      -0.620900
     30 C10          1.0990    -0.9480     0.7280 c5         1 MOD       0.416900
     31 HN21        -4.4730     0.6580     0.8790 hn         1 MOD       0.374000
     32 HN22        -3.5010     0.2180     2.0950 hn         1 MOD       0.374000
     33 HA          -1.6710    -0.1120     0.6900 h1         1 MOD       0.069700
     34 HB1         -2.4920    -1.8820    -0.8530 hc         1 MOD       0.056700
     35 HB2         -4.1540    -1.4350    -0.4840 hc         1 MOD       0.056700
     36 HG1         -3.7730    -2.0140     1.9230 h1         1 MOD       0.058200
     37 HG2         -2.0760    -2.3520     1.5710 h1         1 MOD       0.058200
     38 HE1         -3.8220    -4.4720     3.0870 h1         1 MOD       0.055033
     39 HE2         -3.3670    -5.9300     2.1940 h1         1 MOD       0.055033
     40 HE3         -2.1340    -4.7250     2.5950 h1         1 MOD       0.055033
     41 H91         -1.9970     0.1610    -1.7760 h1         1 MOD       0.024700
     42 H92         -3.5250     0.9910    -1.4390 h1         1 MOD       0.024700
     43 H5'1         1.1950     3.2810    -2.0750 h1         1 MOD       0.024700
     44 H5'2         1.2510     4.9520    -1.5290 h1         1 MOD       0.024700
     45 H4           1.2210     4.2860     0.8150 h1         1 MOD       0.093700
     46 H3           3.4240     4.1460    -0.8230 h1         1 MOD       0.046700
     47 H2           4.4630     3.3170     1.2250 ho         1 MOD       0.506000
     48 H1           2.9970     1.8880    -1.5170 h1         1 MOD       0.060700
     49 H10          5.0900     1.7090    -0.8080 ho         1 MOD       0.499000
     50 H11          2.5200     1.1030     1.3830 h2         1 MOD       0.087700
     51 H8           1.1220     0.7160    -2.1150 h5         1 MOD       0.088800
     52 HN61        -0.6030    -3.6260    -1.7840 hn         1 MOD       0.443500
     53 HN62        -1.2180    -4.4440    -0.5070 hn         1 MOD       0.443500
     54 HN1          0.5800    -4.5280     1.3690 hn         1 MOD       0.476000
     55 H7           2.2970    -3.4970     2.4370 h5         1 MOD       0.025800
     56 H6           0.3800    -0.4730     1.4220 h2         1 MOD       0.079700
@<TRIPOS>BOND
     1     1     2 1   
     2     1    31 1   
     3     1    32 1   
     4     2     3 1   
     5     2     7 1   
     6     2    33 1   
     7     3     4 1   
     8     3    34 1   
     9     3    35 1   
    10     4     5 1   
    11     4    36 1   
    12     4    37 1   
    13     5     6 1   
    14     6    38 1   
    15     6    39 1   
    16     6    40 1   
    17     7     8 1   
    18     7    41 1   
    19     7    42 1   
    20     8     9 1   
    21     9    10 1   
    22     9    11 1   
    23     9    12 1   
    24    12    13 1   
    25    13    14 1   
    26    13    43 1   
    27    13    44 1   
    28    14    15 1   
    29    14    16 1   
    30    14    45 1   
    31    15    20 1   
    32    16    17 1   
    33    16    18 1   
    34    16    46 1   
    35    17    47 1   
    36    18    19 1   
    37    18    20 1   
    38    18    48 1   
    39    19    49 1   
    40    20    21 1   
    41    20    50 1   
    42    21    22 1   
    43    21    30 1   
    44    22    23 2   
    45    22    51 1   
    46    23    24 1   
    47    24    25 2   
    48    24    30 1   
    49    25    26 1   
    50    25    27 1   
    51    26    52 1   
    52    26    53 1   
    53    27    28 1   
    54    27    54 1   
    55    28    29 2   
    56    28    55 1   
    57    29    30 1   
    58    30    56 1   
@<TRIPOS>SUBSTRUCTURE
     1 MOD         1 TEMP              0 ****  ****    0 ROOT
