@<TRIPOS>MOLECULE
MOE
   12    11     1     0     0
SMALL
No Charge or Current Charge


@<TRIPOS>ATOM
      1 O2          -1.9990    -0.6410     0.0670 o          1 MOE      -0.892500
      2 CA          -1.4120     0.5070    -0.2980 c3         1 MOE       0.429100
      3 CB           0.0460     0.6900     0.2590 c3         1 MOE       0.086600
      4 OC           0.9480    -0.2700    -0.3370 os         1 MOE      -0.427000
      5 CD           2.3080    -0.1610     0.1090 c3         1 MOE       0.154900
      6 HA'1        -1.9770     1.3870     0.0380 h1         1 MOE      -0.134800
      7 HA'2        -1.3590     0.6340    -1.3880 h1         1 MOE      -0.134800
      8 HB'1         0.0430     0.5870     1.3530 h1         1 MOE      -0.028800
      9 HB'2         0.3860     1.7080     0.0250 h1         1 MOE      -0.028800
     10 HD'1         2.3740    -0.3140     1.1940 h1         1 MOE      -0.007300
     11 HD'2         2.9310    -0.9180    -0.3830 h1         1 MOE      -0.007300
     12 HD'3         2.7170     0.8290    -0.1300 h1         1 MOE      -0.007300
@<TRIPOS>BOND
     1     1     2 1   
     2     2     3 1   
     3     2     6 1   
     4     2     7 1   
     5     3     4 1   
     6     3     8 1   
     7     3     9 1   
     8     4     5 1   
     9     5    10 1   
    10     5    11 1   
    11     5    12 1   
@<TRIPOS>SUBSTRUCTURE
     1 MOE         1 TEMP              0 ****  ****    0 ROOT
