@<TRIPOS>MOLECULE
MOE
   12    11     1     0     0
SMALL
bcc


@<TRIPOS>ATOM
      1 O2          -1.9540    -0.6880     0.0520 o          1 MOE      -0.892500
      2 CA          -1.3790     0.4620    -0.2770 c3         1 MOE       0.429100
      3 CB           0.0520     0.6710     0.2320 c3         1 MOE       0.063400
      4 OC           0.9260    -0.2820    -0.3360 os         1 MOE      -0.380600
      5 CD           2.2420    -0.1430     0.1140 c3         1 MOE       0.131700
      6 HA'1        -1.8940     1.4030     0.0920 h1         1 MOE      -0.134800
      7 HA'2        -1.3060     0.6780    -1.3870 h1         1 MOE      -0.134800
      8 HB'1         0.0720     0.5870     1.3320 h1         1 MOE      -0.028800
      9 HB'2         0.3930     1.6920    -0.0140 h1         1 MOE      -0.028800
     10 HD'1         2.3300    -0.2780     1.2010 h1         1 MOE      -0.007300
     11 HD'2         2.8570    -0.9040    -0.3700 h1         1 MOE      -0.007300
     12 HD'3         2.6670     0.8400    -0.1290 h1         1 MOE      -0.007300
@<TRIPOS>BOND
     1     1     2 1   
     2     2     3 1   
     3     2     6 1   
     4     2     7 1   
     5     3     4 1   
     6     3     8 1   
     7     3     9 1   
     8     4     5 1   
     9     5    10 1   
    10     5    11 1   
    11     5    12 1   
@<TRIPOS>SUBSTRUCTURE
     1 MOE         1 TEMP              0 ****  ****    0 ROOT
