@<TRIPOS>MOLECULE
MOF
   65    69     1     0     0
SMALL
No Charge or Current Charge


@<TRIPOS>ATOM
      1 O35          2.9410     1.1890    -6.4220 o          1 MOF      -0.526100
      2 C34          2.0130     0.9980    -5.6500 c          1 MOF       0.568500
      3 C33          1.2430     2.1100    -5.0440 ce         1 MOF      -0.282200
      4 C32          1.5790    -0.3600    -5.2500 ce         1 MOF      -0.290200
      5 C29          0.5520    -0.5960    -4.4010 c2         1 MOF      -0.044400
      6 C26          0.1720    -2.0160    -3.9940 c6         1 MOF      -0.046200
      7 C24         -0.2940     0.5290    -3.7650 c6         1 MOF       0.014400
      8 C30          0.2110     1.9160    -4.1910 c2         1 MOF      -0.152200
      9 C31         -1.7210     0.4060    -4.4030 c3         1 MOF      -0.070100
     10 C19         -0.2250     0.3660    -2.1770 c6         1 MOF       0.198000
     11 Cl25         1.5800     0.6230    -1.7350 cl         1 MOF      -0.291000
     12 C15         -1.0190     1.4710    -1.3490 c6         1 MOF       0.176300
     13 O21         -2.3810     1.6520    -1.7640 oh         1 MOF      -0.661000
     14 C14         -0.6480    -1.0960    -1.7340 c6         1 MOF      -0.044700
     15 C20          0.1950    -2.1870    -2.4610 c6         1 MOF      -0.070400
     16 C6          -0.5490    -1.2570    -0.1820 c5         1 MOF      -0.070700
     17 C9          -0.9800    -2.6100     0.4410 c5         1 MOF      -0.066400
     18 C3          -1.0750    -2.3060     1.9810 c5         1 MOF      -0.067700
     19 C10         -0.0590    -3.1260     2.8150 c3         1 MOF      -0.091100
     20 C2          -1.4070    -0.2300     0.6280 c5         1 MOF      -0.024000
     21 C7          -0.9740     1.2200     0.1970 c6         1 MOF      -0.100400
     22 C8          -2.9620    -0.3750     0.4210 c3         1 MOF      -0.098100
     23 C1          -0.9820    -0.6890     2.0920 c5         1 MOF       0.097000
     24 C5          -1.9650    -0.1010     3.1840 c          1 MOF       0.573100
     25 O13         -2.7640    -0.7830     3.8210 o          1 MOF      -0.468100
     26 C12         -1.8970     1.4190     3.4260 c3         1 MOF       0.012600
     27 Cl18        -2.1840     1.9130     5.1620 cl         1 MOF      -0.221000
     28 O4           0.4500    -0.2570     2.3010 os         1 MOF      -0.427100
     29 C11          1.0660    -0.2680     3.5660 c          1 MOF       0.532600
     30 O17          0.4740    -0.5340     4.6020 o          1 MOF      -0.464000
     31 C16          2.4980     0.1150     3.5230 cc         1 MOF       0.051500
     32 C22          3.3460     0.2070     4.5950 cd         1 MOF      -0.090000
     33 C27          4.6010     0.5990     4.0830 cd         1 MOF      -0.208000
     34 C28          4.4680     0.7290     2.7260 cc         1 MOF       0.155900
     35 O23          3.1730     0.4340     2.3610 os         1 MOF      -0.199000
     36 H33          1.5600     3.1110    -5.3300 ha         1 MOF       0.200000
     37 H32          2.1580    -1.1750    -5.6800 ha         1 MOF       0.199000
     38 H261         0.8590    -2.7430    -4.4490 hc         1 MOF       0.056200
     39 H262        -0.8240    -2.2660    -4.3830 hc         1 MOF       0.056200
     40 H30         -0.3270     2.7760    -3.7870 ha         1 MOF       0.182000
     41 H311        -2.3300     1.3010    -4.2430 hc         1 MOF       0.048033
     42 H312        -1.6460     0.2870    -5.4910 hc         1 MOF       0.048033
     43 H313        -2.2880    -0.4500    -4.0260 hc         1 MOF       0.048033
     44 H15         -0.4940     2.4230    -1.5150 h1         1 MOF       0.048700
     45 H21         -2.7240     2.4390    -1.2890 ho         1 MOF       0.449000
     46 H14         -1.6940    -1.2560    -2.0190 hc         1 MOF       0.069700
     47 H201         1.2360    -2.1650    -2.1100 hc         1 MOF       0.054700
     48 H202        -0.1860    -3.1870    -2.2130 hc         1 MOF       0.054700
     49 H6           0.5190    -1.1240     0.0270 hc         1 MOF       0.082700
     50 H91         -0.2560    -3.4030     0.2200 hc         1 MOF       0.049700
     51 H92         -1.9400    -2.9540     0.0380 hc         1 MOF       0.049700
     52 H3          -2.0500    -2.7150     2.3150 hc         1 MOF       0.076700
     53 H101        -0.1930    -4.2000     2.6420 hc         1 MOF       0.045033
     54 H102         0.9770    -2.8820     2.5490 hc         1 MOF       0.045033
     55 H103        -0.1930    -2.9560     3.8890 hc         1 MOF       0.045033
     56 H71          0.0510     1.4200     0.5350 hc         1 MOF       0.059200
     57 H72         -1.5890     1.9750     0.7030 hc         1 MOF       0.059200
     58 H81         -3.2460    -0.4450    -0.6330 hc         1 MOF       0.046700
     59 H82         -3.3750    -1.2680     0.9020 hc         1 MOF       0.046700
     60 H83         -3.5030     0.4810     0.8420 hc         1 MOF       0.046700
     61 H121        -0.9070     1.7920     3.1380 h1         1 MOF       0.078700
     62 H122        -2.6570     1.9060     2.8050 h1         1 MOF       0.078700
     63 H22          3.0940     0.0140     5.6330 ha         1 MOF       0.160000
     64 H27          5.5100     0.7690     4.6520 ha         1 MOF       0.151000
     65 H28          5.1660     1.0070     1.9480 h4         1 MOF       0.060100
@<TRIPOS>BOND
     1     1     2 2   
     2     2     3 1   
     3     2     4 1   
     4     3     8 2   
     5     3    36 1   
     6     4     5 2   
     7     4    37 1   
     8     5     6 1   
     9     5     7 1   
    10     6    15 1   
    11     6    38 1   
    12     6    39 1   
    13     7     8 1   
    14     7     9 1   
    15     7    10 1   
    16     8    40 1   
    17     9    41 1   
    18     9    42 1   
    19     9    43 1   
    20    10    11 1   
    21    10    12 1   
    22    10    14 1   
    23    12    13 1   
    24    12    21 1   
    25    12    44 1   
    26    13    45 1   
    27    14    15 1   
    28    14    16 1   
    29    14    46 1   
    30    15    47 1   
    31    15    48 1   
    32    16    17 1   
    33    16    20 1   
    34    16    49 1   
    35    17    18 1   
    36    17    50 1   
    37    17    51 1   
    38    18    19 1   
    39    18    23 1   
    40    18    52 1   
    41    19    53 1   
    42    19    54 1   
    43    19    55 1   
    44    20    21 1   
    45    20    22 1   
    46    20    23 1   
    47    21    56 1   
    48    21    57 1   
    49    22    58 1   
    50    22    59 1   
    51    22    60 1   
    52    23    24 1   
    53    23    28 1   
    54    24    25 2   
    55    24    26 1   
    56    26    27 1   
    57    26    61 1   
    58    26    62 1   
    59    28    29 1   
    60    29    30 2   
    61    29    31 1   
    62    31    32 2   
    63    31    35 1   
    64    32    33 1   
    65    32    63 1   
    66    33    34 2   
    67    33    64 1   
    68    34    35 1   
    69    34    65 1   
@<TRIPOS>SUBSTRUCTURE
     1 MOF         1 TEMP              0 ****  ****    0 ROOT
