@<TRIPOS>MOLECULE
MOF
   65    69     1     0     0
SMALL
abcg2


@<TRIPOS>ATOM
      1 O35          2.7210     1.3110    -6.4360 o          1 MOF      -0.526100
      2 C34          1.8350     1.0760    -5.6250 c          1 MOF       0.568500
      3 C33          1.0590     2.1510    -5.0000 ce         1 MOF      -0.282200
      4 C32          1.4900    -0.2860    -5.2290 ce         1 MOF      -0.290200
      5 C29          0.5300    -0.5630    -4.3380 c2         1 MOF      -0.044400
      6 C26          0.1930    -1.9670    -3.9510 c6         1 MOF      -0.046200
      7 C24         -0.3160     0.5140    -3.7030 c6         1 MOF       0.014400
      8 C30          0.1050     1.8910    -4.1080 c2         1 MOF      -0.152200
      9 C31         -1.7490     0.3280    -4.2740 c3         1 MOF      -0.070100
     10 C19         -0.2010     0.3410    -2.1480 c6         1 MOF       0.198000
     11 CL25         1.5840     0.5710    -1.7910 cl         1 MOF      -0.291000
     12 C15         -0.8740     1.4540    -1.3060 c6         1 MOF       0.176300
     13 O21         -2.1930     1.6110    -1.7670 oh         1 MOF      -0.661000
     14 C14         -0.5940    -1.0810    -1.7040 c6         1 MOF      -0.044700
     15 C20          0.2080    -2.1540    -2.4360 c6         1 MOF      -0.070400
     16 C6          -0.4460    -1.2260    -0.1970 c5         1 MOF      -0.070700
     17 C9          -0.7820    -2.5680     0.4410 c5         1 MOF      -0.066400
     18 C3          -1.0290    -2.2440     1.9370 c5         1 MOF      -0.067700
     19 C10         -0.1270    -3.0440     2.8650 c3         1 MOF      -0.091100
     20 C2          -1.2770    -0.2150     0.6020 c5         1 MOF      -0.024000
     21 C7          -0.8140     1.1880     0.2090 c6         1 MOF      -0.100400
     22 C8          -2.7870    -0.3970     0.3850 c3         1 MOF      -0.098100
     23 C1          -0.9380    -0.6960     2.0550 c5         1 MOF       0.097000
     24 C5          -1.8790    -0.0980     3.1100 c          1 MOF       0.573100
     25 O13         -2.7400    -0.7460     3.6400 o          1 MOF      -0.468100
     26 C12         -1.7960     1.4060     3.3250 c3         1 MOF       0.012600
     27 CL18        -2.2970     1.8470     4.9690 cl         1 MOF      -0.221000
     28 O4           0.4120    -0.2830     2.2960 os         1 MOF      -0.427100
     29 C11          0.8990    -0.2090     3.5270 c          1 MOF       0.532600
     30 O17          0.2450    -0.3350     4.5340 o          1 MOF      -0.464000
     31 C16          2.3250     0.0740     3.5320 cc         1 MOF       0.051500
     32 C22          3.1750     0.2630     4.5790 cd         1 MOF      -0.090000
     33 C27          4.4480     0.5100     4.0080 cd         1 MOF      -0.208000
     34 C28          4.2690     0.4510     2.6620 cc         1 MOF       0.155900
     35 O23          2.9920     0.1900     2.3640 os         1 MOF      -0.199000
     36 H33          1.2900     3.1700    -5.2870 ha         1 MOF       0.200000
     37 H32          2.0570    -1.0910    -5.6860 ha         1 MOF       0.199000
     38 H261         0.8880    -2.6630    -4.4230 hc         1 MOF       0.056200
     39 H262        -0.8020    -2.2120    -4.3340 hc         1 MOF       0.056200
     40 H30         -0.4560     2.7120    -3.6770 ha         1 MOF       0.182000
     41 H311        -2.3760     1.1900    -4.0750 hc         1 MOF       0.048033
     42 H312        -1.6740     0.2050    -5.3550 hc         1 MOF       0.048033
     43 H313        -2.2510    -0.5510    -3.8770 hc         1 MOF       0.048033
     44 H15         -0.3100     2.3770    -1.4760 h1         1 MOF       0.048700
     45 H21         -2.5940     2.3370    -1.2780 ho         1 MOF       0.449000
     46 H14         -1.6480    -1.2080    -1.9770 hc         1 MOF       0.069700
     47 H201         1.2390    -2.1520    -2.0760 hc         1 MOF       0.054700
     48 H202        -0.2050    -3.1340    -2.1900 hc         1 MOF       0.054700
     49 H6           0.6070    -1.0270     0.0280 hc         1 MOF       0.082700
     50 H91          0.0300    -3.2870     0.3190 hc         1 MOF       0.049700
     51 H92         -1.6720    -3.0170    -0.0080 hc         1 MOF       0.049700
     52 H3          -2.0530    -2.5170     2.1880 hc         1 MOF       0.076700
     53 H101        -0.3050    -4.1060     2.6960 hc         1 MOF       0.045033
     54 H102         0.9330    -2.8710     2.6720 hc         1 MOF       0.045033
     55 H103        -0.3290    -2.8480     3.9170 hc         1 MOF       0.045033
     56 H71          0.2150     1.3480     0.5320 hc         1 MOF       0.059200
     57 H72         -1.4070     1.9730     0.6890 hc         1 MOF       0.059200
     58 H81         -3.0510    -0.3500    -0.6660 hc         1 MOF       0.046700
     59 H82         -3.1640    -1.3450     0.7650 hc         1 MOF       0.046700
     60 H83         -3.3560     0.3960     0.8770 hc         1 MOF       0.046700
     61 H121        -0.8150     1.8310     3.1360 h1         1 MOF       0.078700
     62 H122        -2.4960     1.8820     2.6350 h1         1 MOF       0.078700
     63 H22          2.9200     0.2290     5.6250 ha         1 MOF       0.160000
     64 H27          5.3730     0.7050     4.5240 ha         1 MOF       0.151000
     65 H28          4.9440     0.5740     1.8310 h4         1 MOF       0.060100
@<TRIPOS>BOND
     1     1     2 2   
     2     2     3 1   
     3     2     4 1   
     4     3     8 2   
     5     3    36 1   
     6     4     5 2   
     7     4    37 1   
     8     5     6 1   
     9     5     7 1   
    10     6    15 1   
    11     6    38 1   
    12     6    39 1   
    13     7     8 1   
    14     7     9 1   
    15     7    10 1   
    16     8    40 1   
    17     9    41 1   
    18     9    42 1   
    19     9    43 1   
    20    10    11 1   
    21    10    12 1   
    22    10    14 1   
    23    12    13 1   
    24    12    21 1   
    25    12    44 1   
    26    13    45 1   
    27    14    15 1   
    28    14    16 1   
    29    14    46 1   
    30    15    47 1   
    31    15    48 1   
    32    16    17 1   
    33    16    20 1   
    34    16    49 1   
    35    17    18 1   
    36    17    50 1   
    37    17    51 1   
    38    18    19 1   
    39    18    23 1   
    40    18    52 1   
    41    19    53 1   
    42    19    54 1   
    43    19    55 1   
    44    20    21 1   
    45    20    22 1   
    46    20    23 1   
    47    21    56 1   
    48    21    57 1   
    49    22    58 1   
    50    22    59 1   
    51    22    60 1   
    52    23    24 1   
    53    23    28 1   
    54    24    25 2   
    55    24    26 1   
    56    26    27 1   
    57    26    61 1   
    58    26    62 1   
    59    28    29 1   
    60    29    30 2   
    61    29    31 1   
    62    31    32 2   
    63    31    35 1   
    64    32    33 1   
    65    32    63 1   
    66    33    34 2   
    67    33    64 1   
    68    34    35 1   
    69    34    65 1   
@<TRIPOS>SUBSTRUCTURE
     1 MOF         1 TEMP              0 ****  ****    0 ROOT
