@<TRIPOS>MOLECULE
MOG
   18    19     1     0     0
SMALL
bcc


@<TRIPOS>ATOM
      1 N1          -0.6450     0.0010    -1.9400 ns         1 MOG      -0.525400
      2 C2           0.7180     0.0270    -1.9620 cc         1 MOG       0.751800
      3 N3           1.4480     0.0400    -0.8640 nd         1 MOG      -0.767700
      4 C4           0.7070     0.0210     0.2340 cd         1 MOG       0.475400
      5 C5          -0.6550    -0.0060     0.3760 cc         1 MOG       0.059500
      6 C6          -1.4600    -0.0190    -0.7980 c          1 MOG       0.667000
      7 O6          -2.6740    -0.0430    -0.8980 o          1 MOG      -0.581500
      8 N7          -0.9720    -0.0180     1.7180 nc         1 MOG      -0.598000
      9 C8           0.1620     0.0020     2.3170 cd         1 MOG       0.474700
     10 O9           1.2340     0.0260     1.4670 os         1 MOG      -0.338800
     11 C10          0.4380     0.0040     3.7730 c3         1 MOG      -0.113400
     12 N2           1.3150     0.0250    -3.1520 nv         1 MOG      -0.940800
     13 HN1         -1.1370    -0.0110    -2.8250 hn         1 MOG       0.324500
     14 H101         1.5070    -0.0040     3.9710 hc         1 MOG       0.065367
     15 H102         0.0080     0.8890     4.2410 hc         1 MOG       0.065367
     16 H103        -0.0070    -0.8700     4.2460 hc         1 MOG       0.065367
     17 HN21         2.3160     0.1020    -3.1950 hn         1 MOG       0.458800
     18 HN22         0.8000     0.1030    -4.0130 hn         1 MOG       0.458800
@<TRIPOS>BOND
     1     1     2 1   
     2     1     6 1   
     3     1    13 1   
     4     2     3 2   
     5     2    12 1   
     6     3     4 1   
     7     4     5 2   
     8     4    10 1   
     9     5     6 1   
    10     5     8 1   
    11     6     7 2   
    12     8     9 2   
    13     9    10 1   
    14     9    11 1   
    15    11    14 1   
    16    11    15 1   
    17    11    16 1   
    18    12    17 1   
    19    12    18 1   
@<TRIPOS>SUBSTRUCTURE
     1 MOG         1 TEMP              0 ****  ****    0 ROOT
