@<TRIPOS>MOLECULE
MOG
   18    19     1     0     0
SMALL
No Charge or Current Charge


@<TRIPOS>ATOM
      1 N1          -0.6820    -0.0470    -1.9820 ns         1 MOG      -0.458400
      2 C2           0.6690    -0.0540    -1.9740 cc         1 MOG       0.751800
      3 N3           1.4670    -0.0460    -0.9390 nd         1 MOG      -0.767700
      4 C4           0.7530    -0.0240     0.2580 cd         1 MOG       0.431000
      5 C5          -0.6050    -0.0140     0.3560 cc         1 MOG       0.059500
      6 C6          -1.4430    -0.0280    -0.8550 c          1 MOG       0.524500
      7 O6          -2.6650    -0.0260    -0.8910 o          1 MOG      -0.506000
      8 N7          -0.9480     0.0080     1.6880 nc         1 MOG      -0.598000
      9 C8           0.2450     0.0090     2.2870 cd         1 MOG       0.430300
     10 O9           1.3480    -0.0100     1.4680 os         1 MOG      -0.250000
     11 C10          0.4230     0.0290     3.7760 c3         1 MOG      -0.113400
     12 N2           1.2580    -0.0720    -3.1480 nv         1 MOG      -1.051200
     13 HN1         -1.1700    -0.0840    -2.8620 hn         1 MOG       0.324500
     14 H101         1.4850     0.0260     4.0460 hc         1 MOG       0.065367
     15 H102        -0.0340     0.9250     4.2100 hc         1 MOG       0.065367
     16 H103        -0.0450    -0.8490     4.2350 hc         1 MOG       0.065367
     17 HN21         2.2530     0.1030    -3.0800 hn         1 MOG       0.514000
     18 HN22         0.7930     0.4240    -3.8980 hn         1 MOG       0.514000
@<TRIPOS>BOND
     1     1     2 1   
     2     1     6 1   
     3     1    13 1   
     4     2     3 2   
     5     2    12 1   
     6     3     4 1   
     7     4     5 2   
     8     4    10 1   
     9     5     6 1   
    10     5     8 1   
    11     6     7 2   
    12     8     9 2   
    13     9    10 1   
    14     9    11 1   
    15    11    14 1   
    16    11    15 1   
    17    11    16 1   
    18    12    17 1   
    19    12    18 1   
@<TRIPOS>SUBSTRUCTURE
     1 MOG         1 TEMP              0 ****  ****    0 ROOT
