@<TRIPOS>MOLECULE
MOH
    6     5     1     0     0
SMALL
No Charge or Current Charge


@<TRIPOS>ATOM
      1 C           17.5740    15.5680     5.2560 c3         1 MOH       0.145900
      2 O           18.9560    15.3600     4.9400 oh         1 MOH      -0.656000
      3 H1          17.4240    15.5800     6.3440 h1         1 MOH       0.024367
      4 H2          17.2230    16.5260     4.8500 h1         1 MOH       0.024367
      5 H3          16.9550    14.7660     4.8330 h1         1 MOH       0.024367
      6 HO          19.0280    15.3590     3.9590 ho         1 MOH       0.438000
@<TRIPOS>BOND
     1     1     2 1   
     2     1     3 1   
     3     1     4 1   
     4     1     5 1   
     5     2     6 1   
@<TRIPOS>SUBSTRUCTURE
     1 MOH         1 TEMP              0 ****  ****    0 ROOT
