@<TRIPOS>MOLECULE
MOH
    6     5     1     0     0
SMALL
bcc


@<TRIPOS>ATOM
      1 C           17.5780    15.5670     5.2340 c3         1 MOH       0.122700
      2 O           18.9400    15.3600     4.9450 oh         1 MOH      -0.593800
      3 H1          17.4650    15.5750     6.3180 h1         1 MOH       0.024367
      4 H2          17.2000    16.5230     4.8550 h1         1 MOH       0.024367
      5 H3          16.9320    14.7740     4.8400 h1         1 MOH       0.024367
      6 HO          19.0450    15.3590     3.9900 ho         1 MOH       0.399000
@<TRIPOS>BOND
     1     1     2 1   
     2     1     3 1   
     3     1     4 1   
     4     1     5 1   
     5     2     6 1   
@<TRIPOS>SUBSTRUCTURE
     1 MOH         1 TEMP              0 ****  ****    0 ROOT
