@<TRIPOS>MOLECULE
MOI
   40    44     1     0     0
SMALL
bcc


@<TRIPOS>ATOM
      1 C1           2.5340     1.3930     0.4830 ca         1 MOI      -0.126000
      2 C2           1.1810     1.3670    -1.7080 c6         1 MOI      -0.052100
      3 C3           1.5100     0.8840    -0.3200 ca         1 MOI      -0.059300
      4 C4           0.6530    -0.0050     0.2850 ca         1 MOI      -0.127300
      5 C5          -0.5420    -0.6570    -0.3300 c5         1 MOI      -0.026700
      6 C6          -1.1590     0.3950    -1.2630 c6         1 MOI      -0.013500
      7 C7          -0.1700    -1.9010    -1.1410 c6         1 MOI      -0.056400
      8 C8           0.7140    -1.5580    -2.3280 c6         1 MOI       0.173800
      9 C9           0.8710    -0.2400    -4.3290 c3         1 MOI       0.161100
     10 C10          2.6310     1.0400     1.8250 ca         1 MOI      -0.134000
     11 C11          1.6850     0.2160     2.4420 ca         1 MOI       0.125100
     12 C12          0.6750    -0.2770     1.6310 ca         1 MOI       0.042100
     13 C13         -1.3470    -1.0180     0.9390 c5         1 MOI       0.162100
     14 C14         -2.5140    -0.0520     1.1790 c6         1 MOI       0.167300
     15 C15         -2.2170     1.3530     0.7200 c2         1 MOI      -0.203200
     16 C16         -1.6220     1.5660    -0.4490 c2         1 MOI      -0.147200
     17 C17         -0.0930     0.7290    -2.3210 c6         1 MOI       0.197500
     18 N1           0.1420    -0.4760    -3.1060 n3         1 MOI      -0.732600
     19 O1           1.7770    -0.0200     3.7720 oh         1 MOI      -0.495100
     20 O2          -2.8880    -0.1340     2.5300 oh         1 MOI      -0.573800
     21 O3          -0.4060    -0.9900     2.0350 os         1 MOI      -0.298900
     22 H1           3.2510     2.0940     0.0730 ha         1 MOI       0.133000
     23 H21          1.0370     2.4500    -1.6600 hc         1 MOI       0.052200
     24 H22          2.0260     1.2260    -2.3880 hc         1 MOI       0.052200
     25 H6          -2.0130    -0.0400    -1.8000 hc         1 MOI       0.076700
     26 H71         -1.0920    -2.3760    -1.4910 hc         1 MOI       0.051700
     27 H72          0.3430    -2.6280    -0.5060 hc         1 MOI       0.051700
     28 H81          0.8050    -2.4360    -2.9730 h1         1 MOI       0.038200
     29 H82          1.7350    -1.3280    -1.9810 h1         1 MOI       0.038200
     30 H91          1.9270     0.0340    -4.1860 h1         1 MOI       0.030367
     31 H92          0.8550    -1.1410    -4.9440 h1         1 MOI       0.030367
     32 H93          0.3960     0.5590    -4.9000 h1         1 MOI       0.030367
     33 H10          3.4300     1.4510     2.4300 ha         1 MOI       0.146000
     34 H13         -1.7380    -2.0370     0.9000 h1         1 MOI       0.081700
     35 H14         -3.3220    -0.4370     0.5350 h1         1 MOI       0.035700
     36 H15         -2.5640     2.1770     1.3330 ha         1 MOI       0.136000
     37 H16         -1.4540     2.5740    -0.8150 ha         1 MOI       0.133000
     38 H17         -0.5250     1.4650    -3.0050 h1         1 MOI       0.058700
     39 HO1          1.0670    -0.6020     4.0630 ho         1 MOI       0.441000
     40 HO2         -3.7550     0.2720     2.6250 ho         1 MOI       0.403000
@<TRIPOS>BOND
     1     1     3 ar  
     2     1    10 ar  
     3     1    22 1   
     4     2     3 1   
     5     2    17 1   
     6     2    23 1   
     7     2    24 1   
     8     3     4 ar  
     9     4     5 1   
    10     4    12 ar  
    11     5     6 1   
    12     5     7 1   
    13     5    13 1   
    14     6    16 1   
    15     6    17 1   
    16     6    25 1   
    17     7     8 1   
    18     7    26 1   
    19     7    27 1   
    20     8    18 1   
    21     8    28 1   
    22     8    29 1   
    23     9    18 1   
    24     9    30 1   
    25     9    31 1   
    26     9    32 1   
    27    10    11 ar  
    28    10    33 1   
    29    11    12 ar  
    30    11    19 1   
    31    12    21 1   
    32    13    14 1   
    33    13    21 1   
    34    13    34 1   
    35    14    15 1   
    36    14    20 1   
    37    14    35 1   
    38    15    16 2   
    39    15    36 1   
    40    16    37 1   
    41    17    18 1   
    42    17    38 1   
    43    19    39 1   
    44    20    40 1   
@<TRIPOS>SUBSTRUCTURE
     1 MOI         1 TEMP              0 ****  ****    0 ROOT
