@<TRIPOS>MOLECULE
MOI
   40    44     1     0     0
SMALL
No Charge or Current Charge


@<TRIPOS>ATOM
      1 C1           2.5370     1.4090     0.4740 ca         1 MOI      -0.108000
      2 C2           1.1650     1.3820    -1.7110 c6         1 MOI      -0.052100
      3 C3           1.4830     0.8740    -0.2970 ca         1 MOI      -0.059300
      4 C4           0.6210    -0.0490     0.3090 ca         1 MOI      -0.127300
      5 C5          -0.5640    -0.6940    -0.3280 c5         1 MOI      -0.026700
      6 C6          -1.1950     0.3610    -1.2820 c6         1 MOI      -0.013500
      7 C7          -0.1480    -1.9440    -1.1600 c6         1 MOI      -0.056400
      8 C8           0.7560    -1.5890    -2.3690 c6         1 MOI       0.173800
      9 C9           0.9550    -0.2150    -4.4220 c3         1 MOI       0.161100
     10 C10          2.6760     1.0470     1.8360 ca         1 MOI      -0.116000
     11 C11          1.7300     0.1930     2.4410 ca         1 MOI       0.125100
     12 C12          0.6920    -0.3230     1.6470 ca         1 MOI       0.042100
     13 C13         -1.3610    -1.0460     1.0040 c5         1 MOI       0.185300
     14 C14         -2.5400    -0.0400     1.2830 c6         1 MOI       0.190500
     15 C15         -2.2890     1.3600     0.7380 c2         1 MOI      -0.253200
     16 C16         -1.7020     1.5480    -0.4590 c2         1 MOI      -0.197200
     17 C17         -0.1190     0.7370    -2.3620 c6         1 MOI       0.197500
     18 N1           0.1840    -0.4810    -3.1860 n3         1 MOI      -0.732600
     19 O1           1.7990    -0.0960     3.7730 oh         1 MOI      -0.534100
     20 O2          -2.9330     0.0110     2.6610 oh         1 MOI      -0.636000
     21 O3          -0.3670    -1.0580     2.1090 os         1 MOI      -0.322100
     22 H1           3.2250     2.1270     0.0330 ha         1 MOI       0.115000
     23 H21          1.0000     2.4650    -1.6450 hc         1 MOI       0.052200
     24 H22          2.0460     1.2660    -2.3540 hc         1 MOI       0.052200
     25 H6          -2.0580    -0.0840    -1.7970 hc         1 MOI       0.076700
     26 H71         -1.0510    -2.4500    -1.5270 hc         1 MOI       0.051700
     27 H72          0.3720    -2.6680    -0.5190 hc         1 MOI       0.051700
     28 H81          0.8820    -2.4900    -2.9870 h1         1 MOI       0.038200
     29 H82          1.7570    -1.3170    -2.0030 h1         1 MOI       0.038200
     30 H91          1.9930     0.0650    -4.1990 h1         1 MOI       0.030367
     31 H92          0.9790    -1.1100    -5.0580 h1         1 MOI       0.030367
     32 H93          0.4940     0.5970    -5.0010 h1         1 MOI       0.030367
     33 H10          3.4820     1.4680     2.4310 ha         1 MOI       0.128000
     34 H13         -1.8070    -2.0480     0.9420 h1         1 MOI       0.081700
     35 H14         -3.3930    -0.4280     0.7050 h1         1 MOI       0.035700
     36 H15         -2.6280     2.2060     1.3390 ha         1 MOI       0.186000
     37 H16         -1.5390     2.5510    -0.8600 ha         1 MOI       0.183000
     38 H17         -0.5680     1.4940    -3.0230 h1         1 MOI       0.058700
     39 HO1          1.0260    -0.6640     3.9850 ho         1 MOI       0.480000
     40 HO2         -3.7680     0.5260     2.6940 ho         1 MOI       0.442000
@<TRIPOS>BOND
     1     1     3 ar  
     2     1    10 ar  
     3     1    22 1   
     4     2     3 1   
     5     2    17 1   
     6     2    23 1   
     7     2    24 1   
     8     3     4 ar  
     9     4     5 1   
    10     4    12 ar  
    11     5     6 1   
    12     5     7 1   
    13     5    13 1   
    14     6    16 1   
    15     6    17 1   
    16     6    25 1   
    17     7     8 1   
    18     7    26 1   
    19     7    27 1   
    20     8    18 1   
    21     8    28 1   
    22     8    29 1   
    23     9    18 1   
    24     9    30 1   
    25     9    31 1   
    26     9    32 1   
    27    10    11 ar  
    28    10    33 1   
    29    11    12 ar  
    30    11    19 1   
    31    12    21 1   
    32    13    14 1   
    33    13    21 1   
    34    13    34 1   
    35    14    15 1   
    36    14    20 1   
    37    14    35 1   
    38    15    16 2   
    39    15    36 1   
    40    16    37 1   
    41    17    18 1   
    42    17    38 1   
    43    19    39 1   
    44    20    40 1   
@<TRIPOS>SUBSTRUCTURE
     1 MOI         1 TEMP              0 ****  ****    0 ROOT
