@<TRIPOS>MOLECULE
MOJ
   45    48     1     0     0
SMALL
No Charge or Current Charge


@<TRIPOS>ATOM
      1 F23         -5.6270    -2.3530     0.0620 f          1 MOJ      -0.176000
      2 C14         -4.3570    -1.8950     0.0150 ca         1 MOJ       0.173000
      3 C13         -4.0850    -0.5570     0.3230 ca         1 MOJ      -0.144000
      4 C12         -2.7630    -0.0530     0.2910 cp         1 MOJ       0.001000
      5 C17         -2.5430     1.3770     0.6550 cp         1 MOJ      -0.100000
      6 C22         -1.7360     1.7460     1.7610 ca         1 MOJ       0.349900
      7 N21         -1.5170     3.0280     2.1420 nb         1 MOJ      -0.662000
      8 C20         -2.1140     4.0070     1.4240 ca         1 MOJ       0.339900
      9 C19         -2.9420     3.7470     0.3200 ca         1 MOJ      -0.164000
     10 C18         -3.1660     2.4170    -0.0710 ca         1 MOJ      -0.060000
     11 C15         -3.3150    -2.7600    -0.3330 ca         1 MOJ      -0.146000
     12 C16         -1.9970    -2.2800    -0.3860 ca         1 MOJ      -0.084000
     13 C11         -1.6990    -0.9300    -0.0880 ca         1 MOJ      -0.075300
     14 C9          -0.2320    -0.4650    -0.2150 c6         1 MOJ      -0.014400
     15 C8           0.3620    -0.7290    -1.6170 c6         1 MOJ      -0.139700
     16 C7           1.7780    -0.1490    -1.7430 ce         1 MOJ       0.460900
     17 N24          2.1130     0.5810    -2.7700 n2         1 MOJ      -0.355700
     18 O25          1.7130     0.0910    -4.0330 oh         1 MOJ      -0.515000
     19 C2           2.6880    -0.2920    -0.5510 ca         1 MOJ      -0.306900
     20 C10          0.6770    -1.1100     0.8520 c6         1 MOJ      -0.136700
     21 C3           2.1440    -0.7210     0.6840 ca         1 MOJ       0.191300
     22 N4           2.8930    -0.8380     1.7960 nb         1 MOJ      -0.265000
     23 C5           4.1820    -0.5160     1.6750 ca         1 MOJ       0.401900
     24 N27          4.9360    -0.6330     2.7930 nv         1 MOJ      -1.060900
     25 N6           4.8160    -0.1020     0.5760 nb         1 MOJ      -0.270000
     26 C1           4.0790     0.0170    -0.5470 ca         1 MOJ       0.216300
     27 C26          4.8790     0.4550    -1.7670 c3         1 MOJ      -0.149400
     28 H13         -4.9060     0.0980     0.6030 ha         1 MOJ       0.136000
     29 H22         -1.2510     0.9800     2.3650 h4         1 MOJ       0.024100
     30 H20         -1.9250     5.0300     1.7470 h4         1 MOJ       0.021100
     31 H19         -3.4020     4.5700    -0.2200 ha         1 MOJ       0.126000
     32 H18         -3.8050     2.1920    -0.9230 ha         1 MOJ       0.124000
     33 H15         -3.5300    -3.8000    -0.5680 ha         1 MOJ       0.135000
     34 H16         -1.2040    -2.9700    -0.6650 ha         1 MOJ       0.118000
     35 H9          -0.1820     0.6220    -0.0720 hc         1 MOJ       0.072700
     36 H8           0.3980    -1.8010    -1.8480 hc         1 MOJ       0.070700
     37 H8A         -0.3010    -0.2720    -2.3640 hc         1 MOJ       0.070700
     38 HO25         2.0430     0.7550    -4.6870 ho         1 MOJ       0.467000
     39 H10          0.3240    -0.8240     1.8520 hc         1 MOJ       0.071200
     40 H10A         0.5990    -2.2040     0.8030 hc         1 MOJ       0.071200
     41 HN27         4.5560    -1.1560     3.5780 hn         1 MOJ       0.499000
     42 HN2A         5.9490    -0.6240     2.6990 hn         1 MOJ       0.499000
     43 H26          4.6030     1.4700    -2.0770 hc         1 MOJ       0.062033
     44 H26A         5.9580     0.4620    -1.5680 hc         1 MOJ       0.062033
     45 H26B         4.7170    -0.2240    -2.6120 hc         1 MOJ       0.062033
@<TRIPOS>BOND
     1     1     2 1   
     2     2     3 ar  
     3     2    11 ar  
     4     3     4 ar  
     5     3    28 1   
     6     4     5 1   
     7     4    13 ar  
     8     5     6 ar  
     9     5    10 ar  
    10     6     7 ar  
    11     6    29 1   
    12     7     8 ar  
    13     8     9 ar  
    14     8    30 1   
    15     9    10 ar  
    16     9    31 1   
    17    10    32 1   
    18    11    12 ar  
    19    11    33 1   
    20    12    13 ar  
    21    12    34 1   
    22    13    14 1   
    23    14    15 1   
    24    14    20 1   
    25    14    35 1   
    26    15    16 1   
    27    15    36 1   
    28    15    37 1   
    29    16    17 2   
    30    16    19 1   
    31    17    18 1   
    32    18    38 1   
    33    19    21 ar  
    34    19    26 ar  
    35    20    21 1   
    36    20    39 1   
    37    20    40 1   
    38    21    22 ar  
    39    22    23 ar  
    40    23    24 1   
    41    23    25 ar  
    42    24    41 1   
    43    24    42 1   
    44    25    26 ar  
    45    26    27 1   
    46    27    43 1   
    47    27    44 1   
    48    27    45 1   
@<TRIPOS>SUBSTRUCTURE
     1 MOJ         1 TEMP              0 ****  ****    0 ROOT
