@<TRIPOS>MOLECULE
MOJ
   45    48     1     0     0
SMALL
abcg2


@<TRIPOS>ATOM
      1 F23         -5.5280    -2.2940     0.0060 f          1 MOJ      -0.176000
      2 C14         -4.2610    -1.8520    -0.0250 ca         1 MOJ       0.173000
      3 C13         -4.0070    -0.5330     0.2780 ca         1 MOJ      -0.144000
      4 C12         -2.6940    -0.0590     0.2550 cp         1 MOJ       0.001000
      5 C17         -2.4820     1.3620     0.6130 cp         1 MOJ      -0.100000
      6 C22         -1.6980     1.7260     1.7060 ca         1 MOJ       0.349900
      7 N21         -1.5000     2.9780     2.0920 nb         1 MOJ      -0.662000
      8 C20         -2.0870     3.9450     1.3960 ca         1 MOJ       0.339900
      9 C19         -2.8960     3.7000     0.2970 ca         1 MOJ      -0.164000
     10 C18         -3.0970     2.3880    -0.0980 ca         1 MOJ      -0.060000
     11 C15         -3.2490    -2.7320    -0.3520 ca         1 MOJ      -0.146000
     12 C16         -1.9530    -2.2480    -0.3860 ca         1 MOJ      -0.084000
     13 C11         -1.6450    -0.9180    -0.0970 ca         1 MOJ      -0.075300
     14 C9          -0.2130    -0.4540    -0.2090 c6         1 MOJ      -0.014400
     15 C8           0.3710    -0.7450    -1.5920 c6         1 MOJ      -0.139700
     16 C7           1.7580    -0.1790    -1.7140 ce         1 MOJ       0.460900
     17 N24          2.2040     0.3830    -2.7700 n2         1 MOJ      -0.355700
     18 O25          1.3120     0.4030    -3.8060 oh         1 MOJ      -0.515000
     19 C2           2.6470    -0.2860    -0.5460 ca         1 MOJ      -0.306900
     20 C10          0.6800    -1.0870     0.8480 c6         1 MOJ      -0.136700
     21 C3           2.1230    -0.7120     0.6840 ca         1 MOJ       0.191300
     22 N4           2.8580    -0.8320     1.7780 nb         1 MOJ      -0.265000
     23 C5           4.1500    -0.5340     1.6730 ca         1 MOJ       0.401900
     24 N27          4.9020    -0.6190     2.7850 nv         1 MOJ      -1.060900
     25 N6           4.7600    -0.1370     0.5540 nb         1 MOJ      -0.270000
     26 C1           4.0350    -0.0120    -0.5450 ca         1 MOJ       0.216300
     27 C26          4.8110     0.4120    -1.7520 c3         1 MOJ      -0.149400
     28 H13         -4.8220     0.1260     0.5480 ha         1 MOJ       0.136000
     29 H22         -1.2180     0.9570     2.3040 h4         1 MOJ       0.024100
     30 H20         -1.9100     4.9600     1.7300 h4         1 MOJ       0.021100
     31 H19         -3.3530     4.5210    -0.2380 ha         1 MOJ       0.126000
     32 H18         -3.7180     2.1630    -0.9560 ha         1 MOJ       0.124000
     33 H15         -3.4650    -3.7680    -0.5800 ha         1 MOJ       0.135000
     34 H16         -1.1600    -2.9340    -0.6590 ha         1 MOJ       0.118000
     35 H9          -0.1790     0.6300    -0.0730 hc         1 MOJ       0.072700
     36 H8           0.4210    -1.8270    -1.7600 hc         1 MOJ       0.070700
     37 H8A         -0.2790    -0.3370    -2.3630 hc         1 MOJ       0.070700
     38 HO25         1.7720     0.8950    -4.4930 ho         1 MOJ       0.467000
     39 H10          0.3620    -0.8140     1.8550 hc         1 MOJ       0.071200
     40 H10A         0.6080    -2.1790     0.7910 hc         1 MOJ       0.071200
     41 HN27         4.5250    -1.0740     3.5980 hn         1 MOJ       0.499000
     42 HN2A         5.9010    -0.5590     2.7060 hn         1 MOJ       0.499000
     43 H26          4.4910     1.3890    -2.1090 hc         1 MOJ       0.062033
     44 H26A         5.8680     0.4530    -1.4990 hc         1 MOJ       0.062033
     45 H26B         4.6650    -0.2790    -2.5810 hc         1 MOJ       0.062033
@<TRIPOS>BOND
     1     1     2 1   
     2     2     3 ar  
     3     2    11 ar  
     4     3     4 ar  
     5     3    28 1   
     6     4     5 1   
     7     4    13 ar  
     8     5     6 ar  
     9     5    10 ar  
    10     6     7 ar  
    11     6    29 1   
    12     7     8 ar  
    13     8     9 ar  
    14     8    30 1   
    15     9    10 ar  
    16     9    31 1   
    17    10    32 1   
    18    11    12 ar  
    19    11    33 1   
    20    12    13 ar  
    21    12    34 1   
    22    13    14 1   
    23    14    15 1   
    24    14    20 1   
    25    14    35 1   
    26    15    16 1   
    27    15    36 1   
    28    15    37 1   
    29    16    17 2   
    30    16    19 1   
    31    17    18 1   
    32    18    38 1   
    33    19    21 ar  
    34    19    26 ar  
    35    20    21 1   
    36    20    39 1   
    37    20    40 1   
    38    21    22 ar  
    39    22    23 ar  
    40    23    24 1   
    41    23    25 ar  
    42    24    41 1   
    43    24    42 1   
    44    25    26 ar  
    45    26    27 1   
    46    27    43 1   
    47    27    44 1   
    48    27    45 1   
@<TRIPOS>SUBSTRUCTURE
     1 MOJ         1 TEMP              0 ****  ****    0 ROOT
