@<TRIPOS>MOLECULE
MOK
   23    24     1     0     0
SMALL
No Charge or Current Charge


@<TRIPOS>ATOM
      1 C1           3.8570     0.4970    -0.1440 c3         1 MOK      -0.121400
      2 C2           2.3670     0.7070    -0.1950 cc         1 MOK       0.163300
      3 C3           1.2970    -0.1080     0.0590 cd         1 MOK      -0.230600
      4 C4           1.3830    -1.5180     0.5010 c          1 MOK       0.737600
      5 O5           2.4820    -2.0430     0.5980 o          1 MOK      -0.717000
      6 O6           0.3580    -2.1120     0.7860 o          1 MOK      -0.717000
      7 C7           0.1550     0.6990    -0.1590 cd         1 MOK       0.340500
      8 N8           0.4730     1.9430    -0.4860 nc         1 MOK      -0.424300
      9 O9           1.9050     1.9570    -0.5230 os         1 MOK      -0.114700
     10 C10         -1.2700     0.3290    -0.0540 ca         1 MOK      -0.090500
     11 C11         -1.7860    -0.7630    -0.7820 ca         1 MOK      -0.064500
     12 C12         -3.1560    -1.0750    -0.7250 ca         1 MOK      -0.131500
     13 C13         -4.0270    -0.2870     0.0450 ca         1 MOK      -0.121000
     14 C14         -3.5270     0.8190     0.7510 ca         1 MOK      -0.131500
     15 C15         -2.1580     1.1320     0.6940 ca         1 MOK      -0.064500
     16 H1           4.3940     1.4130    -0.4170 hc         1 MOK       0.051700
     17 H2           4.1760     0.2080     0.8640 hc         1 MOK       0.051700
     18 H3           4.1630    -0.2910    -0.8420 hc         1 MOK       0.051700
     19 H5          -1.1250    -1.3690    -1.3960 ha         1 MOK       0.124500
     20 H6          -3.5430    -1.9240    -1.2840 ha         1 MOK       0.096500
     21 H7          -5.0870    -0.5280     0.0880 ha         1 MOK       0.091000
     22 H8          -4.2010     1.4380     1.3400 ha         1 MOK       0.096500
     23 H9          -1.7830     1.9980     1.2380 ha         1 MOK       0.124500
@<TRIPOS>BOND
     1     1     2 1   
     2     1    16 1   
     3     1    17 1   
     4     1    18 1   
     5     2     3 2   
     6     2     9 1   
     7     3     4 1   
     8     3     7 1   
     9     4     5 1   
    10     4     6 1   
    11     7     8 2   
    12     7    10 1   
    13     8     9 1   
    14    10    11 ar  
    15    10    15 ar  
    16    11    12 ar  
    17    11    19 1   
    18    12    13 ar  
    19    12    20 1   
    20    13    14 ar  
    21    13    21 1   
    22    14    15 ar  
    23    14    22 1   
    24    15    23 1   
@<TRIPOS>SUBSTRUCTURE
     1 MOK         1 TEMP              0 ****  ****    0 ROOT
