@<TRIPOS>MOLECULE
MOK
   23    24     1     0     0
SMALL
abcg2


@<TRIPOS>ATOM
      1 C1           3.8160     0.5680    -0.1660 c3         1 MOK      -0.121400
      2 C2           2.3410     0.6900    -0.1890 cc         1 MOK       0.163300
      3 C3           1.3150    -0.1700     0.0650 cd         1 MOK      -0.230600
      4 C4           1.4070    -1.5940     0.5490 c          1 MOK       0.737600
      5 O5           2.4880    -2.1800     0.3480 o          1 MOK      -0.717000
      6 O6           0.4000    -2.0480     1.1200 o          1 MOK      -0.717000
      7 C7           0.1570     0.6410    -0.1440 cd         1 MOK       0.340500
      8 N8           0.4860     1.8540    -0.4930 nc         1 MOK      -0.424300
      9 O9           1.8470     1.8890    -0.5110 os         1 MOK      -0.114700
     10 C10         -1.2720     0.3070    -0.0550 ca         1 MOK      -0.090500
     11 C11         -1.7740    -0.8590    -0.6300 ca         1 MOK      -0.064500
     12 C12         -3.1330    -1.1270    -0.5950 ca         1 MOK      -0.131500
     13 C13         -4.0080    -0.2420     0.0250 ca         1 MOK      -0.121000
     14 C14         -3.5140     0.9200     0.6020 ca         1 MOK      -0.131500
     15 C15         -2.1540     1.1950     0.5570 ca         1 MOK      -0.064500
     16 H1           4.2720     1.4130     0.3490 hc         1 MOK       0.051700
     17 H2           4.1020    -0.3540     0.3300 hc         1 MOK       0.051700
     18 H3           4.2180     0.5430    -1.1810 hc         1 MOK       0.051700
     19 H5          -1.1060    -1.5500    -1.1250 ha         1 MOK       0.124500
     20 H6          -3.5120    -2.0310    -1.0530 ha         1 MOK       0.096500
     21 H7          -5.0680    -0.4580     0.0570 ha         1 MOK       0.091000
     22 H8          -4.1870     1.6150     1.0870 ha         1 MOK       0.096500
     23 H9          -1.7750     2.1020     1.0120 ha         1 MOK       0.124500
@<TRIPOS>BOND
     1     1     2 1   
     2     1    16 1   
     3     1    17 1   
     4     1    18 1   
     5     2     3 2   
     6     2     9 1   
     7     3     4 1   
     8     3     7 1   
     9     4     5 1   
    10     4     6 1   
    11     7     8 2   
    12     7    10 1   
    13     8     9 1   
    14    10    11 ar  
    15    10    15 ar  
    16    11    12 ar  
    17    11    19 1   
    18    12    13 ar  
    19    12    20 1   
    20    13    14 ar  
    21    13    21 1   
    22    14    15 ar  
    23    14    22 1   
    24    15    23 1   
@<TRIPOS>SUBSTRUCTURE
     1 MOK         1 TEMP              0 ****  ****    0 ROOT
