@<TRIPOS>MOLECULE
MOL
   39    41     1     0     0
SMALL
No Charge or Current Charge


@<TRIPOS>ATOM
      1 C1          -0.5250    -0.5460     2.6390 ca         1 MOL      -0.082300
      2 C2          -1.0790     0.3160     3.6070 ca         1 MOL      -0.091000
      3 C3          -0.3690     0.6200     4.7820 ca         1 MOL      -0.114500
      4 C4           0.8980     0.0550     5.0040 ca         1 MOL      -0.107000
      5 C5           1.4510    -0.8180     4.0530 ca         1 MOL      -0.114500
      6 C6           0.7400    -1.1220     2.8780 ca         1 MOL      -0.091000
      7 N1          -1.3940     1.5180     0.7070 n8         1 MOL      -0.998200
      8 N2           0.1910    -0.1720    -1.9750 n          1 MOL      -0.303200
      9 N3          -0.9870    -0.2620    -2.7650 n3         1 MOL      -0.415600
     10 C7          -1.3120    -0.8990     1.3710 c3         1 MOL      -0.007100
     11 C8           0.1720    -0.0190    -0.5570 c          1 MOL       0.521000
     12 C9          -1.2400     0.1200     0.1730 c6         1 MOL       0.129200
     13 C10         -2.4290    -0.1470    -0.8000 c6         1 MOL      -0.080400
     14 C11         -2.1620     0.4290    -2.2010 c6         1 MOL       0.126800
     15 C12         -0.5190     0.2550    -4.0720 c5         1 MOL       0.122800
     16 C13          0.8800    -0.4150    -4.1840 c5         1 MOL      -0.080400
     17 C14          1.4570    -0.2030    -2.7480 c5         1 MOL      -0.009300
     18 C15          2.2680     1.1180    -2.6870 c          1 MOL       0.581900
     19 O2           3.4620     1.2140    -2.4200 o          1 MOL      -0.495100
     20 H2          -2.0630     0.7530     3.4490 ha         1 MOL       0.115000
     21 H3          -0.8020     1.2910     5.5210 ha         1 MOL       0.110500
     22 H4           1.4480     0.2890     5.9130 ha         1 MOL       0.110000
     23 H5           2.4290    -1.2610     4.2250 ha         1 MOL       0.110500
     24 H6           1.1770    -1.8030     2.1510 ha         1 MOL       0.115000
     25 HN11        -0.7180     1.6340     1.4720 hn         1 MOL       0.411500
     26 HN12        -1.0650     2.1850     0.0000 hn         1 MOL       0.411500
     27 H71         -2.3630    -1.0270     1.6610 hc         1 MOL       0.055200
     28 H72         -1.0040    -1.8900     1.0140 hc         1 MOL       0.055200
     29 H101        -2.5960    -1.2290    -0.8990 hc         1 MOL       0.071200
     30 H102        -3.3620     0.2670    -0.3950 hc         1 MOL       0.071200
     31 H111        -3.0410     0.2680    -2.8410 h1         1 MOL       0.050200
     32 H112        -1.9890     1.5130    -2.1360 h1         1 MOL       0.050200
     33 H121        -1.1890    -0.0280    -4.8950 h1         1 MOL       0.056200
     34 H122        -0.4320     1.3510    -4.0630 h1         1 MOL       0.056200
     35 H131         0.7750    -1.4830    -4.4070 hc         1 MOL       0.068200
     36 H132         1.5010     0.0210    -4.9750 hc         1 MOL       0.068200
     37 H14          2.1140    -1.0260    -2.4380 h1         1 MOL       0.096700
     38 H15          1.6720     2.0310    -2.9080 h4         1 MOL      -0.013800
     39 O1           1.2270     0.0770     0.0600 o          1 MOL      -0.560000
@<TRIPOS>BOND
     1     1     2 ar  
     2     1     6 ar  
     3     1    10 1   
     4     2     3 ar  
     5     2    20 1   
     6     3     4 ar  
     7     3    21 1   
     8     4     5 ar  
     9     4    22 1   
    10     5     6 ar  
    11     5    23 1   
    12     6    24 1   
    13     7    12 1   
    14     7    25 1   
    15     7    26 1   
    16     8     9 1   
    17     8    11 1   
    18     8    17 1   
    19     9    14 1   
    20     9    15 1   
    21    10    12 1   
    22    10    27 1   
    23    10    28 1   
    24    11    12 1   
    25    11    39 2   
    26    12    13 1   
    27    13    14 1   
    28    13    29 1   
    29    13    30 1   
    30    14    31 1   
    31    14    32 1   
    32    15    16 1   
    33    15    33 1   
    34    15    34 1   
    35    16    17 1   
    36    16    35 1   
    37    16    36 1   
    38    17    18 1   
    39    17    37 1   
    40    18    19 2   
    41    18    38 1   
@<TRIPOS>SUBSTRUCTURE
     1 MOL         1 TEMP              0 ****  ****    0 ROOT
