@<TRIPOS>MOLECULE
MOL
   39    41     1     0     0
SMALL
bcc


@<TRIPOS>ATOM
      1 C1          -0.4990    -0.5160     2.5350 ca         1 MOL      -0.082300
      2 C2          -0.9410     0.3920     3.4950 ca         1 MOL      -0.109000
      3 C3          -0.1870     0.6560     4.6320 ca         1 MOL      -0.132500
      4 C4           1.0210     0.0020     4.8330 ca         1 MOL      -0.125000
      5 C5           1.4640    -0.9190     3.8920 ca         1 MOL      -0.132500
      6 C6           0.7100    -1.1730     2.7550 ca         1 MOL      -0.109000
      7 N1          -1.5060     1.5350     0.6540 n8         1 MOL      -0.887800
      8 N2           0.1280    -0.1260    -1.8560 n          1 MOL      -0.370200
      9 N3          -0.9740    -0.3370    -2.7280 n3         1 MOL      -0.415600
     10 C7          -1.3350    -0.8190     1.3230 c3         1 MOL      -0.007100
     11 C8           0.0810     0.1060    -0.5380 c          1 MOL       0.663500
     12 C9          -1.2850     0.1870     0.1510 c6         1 MOL       0.129200
     13 C10         -2.4160    -0.1780    -0.8170 c6         1 MOL      -0.080400
     14 C11         -2.1490     0.3330    -2.2160 c6         1 MOL       0.126800
     15 C12         -0.4890     0.1770    -4.0000 c5         1 MOL       0.122800
     16 C13          0.9480    -0.3170    -4.0370 c5         1 MOL      -0.080400
     17 C14          1.3890    -0.2140    -2.5620 c5         1 MOL      -0.009300
     18 C15          2.2070     1.0360    -2.3280 c          1 MOL       0.581900
     19 O2           3.4090     1.0470    -2.3020 o          1 MOL      -0.495100
     20 H2          -1.8900     0.8960     3.3560 ha         1 MOL       0.133000
     21 H3          -0.5490     1.3650     5.3650 ha         1 MOL       0.128500
     22 H4           1.6090     0.2010     5.7210 ha         1 MOL       0.128000
     23 H5           2.4000    -1.4420     4.0440 ha         1 MOL       0.128500
     24 H6           1.0650    -1.8940     2.0290 ha         1 MOL       0.133000
     25 HN11        -0.7190     1.8330     1.2180 hn         1 MOL       0.356300
     26 HN12        -1.5690     2.1940    -0.1140 hn         1 MOL       0.356300
     27 H71         -2.3850    -0.8720     1.6270 hc         1 MOL       0.055200
     28 H72         -1.0770    -1.8080     0.9350 hc         1 MOL       0.055200
     29 H101        -2.5330    -1.2640    -0.8630 hc         1 MOL       0.071200
     30 H102        -3.3500     0.2310    -0.4280 hc         1 MOL       0.071200
     31 H111        -2.9800     0.0930    -2.8800 h1         1 MOL       0.050200
     32 H112        -2.0270     1.4280    -2.2280 h1         1 MOL       0.050200
     33 H121        -1.0970    -0.2180    -4.8120 h1         1 MOL       0.056200
     34 H122        -0.5280     1.2760    -4.0360 h1         1 MOL       0.056200
     35 H131         0.9950    -1.3560    -4.3590 hc         1 MOL       0.068200
     36 H132         1.5720     0.2690    -4.7100 hc         1 MOL       0.068200
     37 H14          1.9680    -1.0860    -2.2520 h1         1 MOL       0.096700
     38 H15          1.6130     1.9670    -2.2620 h4         1 MOL      -0.013800
     39 O1           1.1290     0.2900     0.0790 o          1 MOL      -0.635500
@<TRIPOS>BOND
     1     1     2 ar  
     2     1     6 ar  
     3     1    10 1   
     4     2     3 ar  
     5     2    20 1   
     6     3     4 ar  
     7     3    21 1   
     8     4     5 ar  
     9     4    22 1   
    10     5     6 ar  
    11     5    23 1   
    12     6    24 1   
    13     7    12 1   
    14     7    25 1   
    15     7    26 1   
    16     8     9 1   
    17     8    11 1   
    18     8    17 1   
    19     9    14 1   
    20     9    15 1   
    21    10    12 1   
    22    10    27 1   
    23    10    28 1   
    24    11    12 1   
    25    11    39 2   
    26    12    13 1   
    27    13    14 1   
    28    13    29 1   
    29    13    30 1   
    30    14    31 1   
    31    14    32 1   
    32    15    16 1   
    33    15    33 1   
    34    15    34 1   
    35    16    17 1   
    36    16    35 1   
    37    16    36 1   
    38    17    18 1   
    39    17    37 1   
    40    18    19 2   
    41    18    38 1   
@<TRIPOS>SUBSTRUCTURE
     1 MOL         1 TEMP              0 ****  ****    0 ROOT
