@<TRIPOS>MOLECULE
MON
   62    65     1     0     0
SMALL
No Charge or Current Charge


@<TRIPOS>ATOM
      1 C1          -1.0860    -0.0860    -4.2250 ca         1 MON       0.450900
      2 N2          -1.6510    -0.0940    -5.5260 nh         1 MON      -0.769300
      3 N3           0.2560    -0.1210    -4.1240 nb         1 MON      -0.368000
      4 N4          -1.9290    -0.0390    -3.1730 nb         1 MON      -0.308000
      5 C5          -3.1250    -0.3400    -5.7350 c6         1 MON       0.225300
      6 C6          -0.8120    -0.4290    -6.7360 c6         1 MON       0.225300
      7 C7           0.7230    -0.1080    -2.8730 ca         1 MON       0.442900
      8 C8          -1.3440    -0.0300    -1.9620 ca         1 MON       0.321300
      9 C9          -3.6560     0.2020    -7.1040 c6         1 MON       0.137300
     10 C10         -1.4120     0.1150    -8.0750 c6         1 MON       0.137300
     11 N11         -0.0150    -0.0640    -1.7570 nb         1 MON      -0.337000
     12 N12          2.0960    -0.1450    -2.7470 nu         1 MON      -0.922100
     13 S13         -2.4290     0.0300    -0.5400 ss         1 MON      -0.321300
     14 N14         -2.8440    -0.2460    -8.2690 n7         1 MON      -0.862400
     15 C15          2.8760    -0.1410    -1.4970 c3         1 MON       0.240800
     16 C16         -1.2780     0.0160     0.9090 c3         1 MON       0.043600
     17 C17          4.3900    -0.1910    -1.7860 c3         1 MON      -0.043100
     18 C18         -2.0720     0.0640     2.2280 c3         1 MON      -0.067400
     19 C19          5.2150    -0.1880    -0.5040 ca         1 MON      -0.122300
     20 C20         -1.1660     0.0540     3.4760 c3         1 MON      -0.030100
     21 C21          5.5510    -1.4010     0.1270 ca         1 MON      -0.065000
     22 C22          5.6380     1.0300     0.0640 ca         1 MON      -0.065000
     23 C23         -1.9720     0.1020     4.7670 ca         1 MON      -0.077300
     24 C24          6.3050    -1.3950     1.3130 ca         1 MON      -0.174000
     25 C25          6.3930     1.0330     1.2510 ca         1 MON      -0.174000
     26 C26         -2.3950    -1.0920     5.3840 ca         1 MON      -0.099000
     27 C27         -2.3080     1.3400     5.3490 ca         1 MON      -0.099000
     28 C28          6.7260    -0.1800     1.8740 ca         1 MON       0.142100
     29 C29         -3.1440    -1.0480     6.5740 ca         1 MON      -0.101500
     30 C30         -3.0570     1.3840     6.5390 ca         1 MON      -0.101500
     31 O31          7.4570    -0.1860     3.0240 oh         1 MON      -0.532100
     32 C32         -3.4740     0.1900     7.1490 ca         1 MON       0.119000
     33 Cl33        -4.4110     0.2450     8.6370 cl         1 MON      -0.207000
     34 H51         -3.3290    -1.4200    -5.6840 h1         1 MON       0.069200
     35 H52         -3.7240     0.1370    -4.9460 h1         1 MON       0.069200
     36 H61          0.2020    -0.0130    -6.6460 h1         1 MON       0.069200
     37 H62         -0.7050    -1.5200    -6.8190 h1         1 MON       0.069200
     38 H91         -4.7000    -0.1160    -7.2390 h1         1 MON       0.040200
     39 H92         -3.6530     1.3020    -7.0690 h1         1 MON       0.040200
     40 H101        -0.8190    -0.2660    -8.9190 h1         1 MON       0.040200
     41 H102        -1.3170     1.2120    -8.0810 h1         1 MON       0.040200
     42 H12          2.6060    -0.1770    -3.6290 hn         1 MON       0.503000
     43 H14         -3.1950     0.2120    -9.1210 hn         1 MON       0.414000
     44 H151         2.6010    -1.0080    -0.8790 h1         1 MON       0.056200
     45 H152         2.6530     0.7660    -0.9180 h1         1 MON       0.056200
     46 H161        -0.6680    -0.8960     0.8750 h1         1 MON       0.074700
     47 H162        -0.6100     0.8850     0.8450 h1         1 MON       0.074700
     48 H171         4.6650     0.6660    -2.4120 hc         1 MON       0.051700
     49 H172         4.6140    -1.0900    -2.3740 hc         1 MON       0.051700
     50 H181        -2.6940     0.9670     2.2410 hc         1 MON       0.055200
     51 H182        -2.7520    -0.7960     2.2700 hc         1 MON       0.055200
     52 H201        -0.4780     0.9080     3.4300 hc         1 MON       0.050700
     53 H202        -0.5360    -0.8450     3.4580 hc         1 MON       0.050700
     54 H21          5.2270    -2.3490    -0.3000 ha         1 MON       0.113500
     55 H22          5.3810     1.9740    -0.4120 ha         1 MON       0.113500
     56 H24          6.5630    -2.3340     1.7970 ha         1 MON       0.122000
     57 H25          6.7130     1.9800     1.6790 ha         1 MON       0.122000
     58 H26         -2.1450    -2.0540     4.9420 ha         1 MON       0.117000
     59 H27         -1.9900     2.2690     4.8800 ha         1 MON       0.117000
     60 H29         -3.4690    -1.9700     7.0480 ha         1 MON       0.129000
     61 H30         -3.3150     2.3410     6.9850 ha         1 MON       0.129000
     62 H31          7.6610     0.7430     3.2660 ho         1 MON       0.465000
@<TRIPOS>BOND
     1     1     2 1   
     2     1     3 ar  
     3     1     4 ar  
     4     2     5 1   
     5     2     6 1   
     6     3     7 ar  
     7     4     8 ar  
     8     5     9 1   
     9     5    34 1   
    10     5    35 1   
    11     6    10 1   
    12     6    36 1   
    13     6    37 1   
    14     7    11 ar  
    15     7    12 1   
    16     8    11 ar  
    17     8    13 1   
    18     9    14 1   
    19     9    38 1   
    20     9    39 1   
    21    10    14 1   
    22    10    40 1   
    23    10    41 1   
    24    12    15 1   
    25    12    42 1   
    26    13    16 1   
    27    14    43 1   
    28    15    17 1   
    29    15    44 1   
    30    15    45 1   
    31    16    18 1   
    32    16    46 1   
    33    16    47 1   
    34    17    19 1   
    35    17    48 1   
    36    17    49 1   
    37    18    20 1   
    38    18    50 1   
    39    18    51 1   
    40    19    21 ar  
    41    19    22 ar  
    42    20    23 1   
    43    20    52 1   
    44    20    53 1   
    45    21    24 ar  
    46    21    54 1   
    47    22    25 ar  
    48    22    55 1   
    49    23    26 ar  
    50    23    27 ar  
    51    24    28 ar  
    52    24    56 1   
    53    25    28 ar  
    54    25    57 1   
    55    26    29 ar  
    56    26    58 1   
    57    27    30 ar  
    58    27    59 1   
    59    28    31 1   
    60    29    32 ar  
    61    29    60 1   
    62    30    32 ar  
    63    30    61 1   
    64    31    62 1   
    65    32    33 1   
@<TRIPOS>SUBSTRUCTURE
     1 MON         1 TEMP              0 ****  ****    0 ROOT
