@<TRIPOS>MOLECULE
MON
   62    65     1     0     0
SMALL
bcc


@<TRIPOS>ATOM
      1 C1          -1.0740    -0.3960    -4.2530 ca         1 MON       0.976900
      2 N2          -1.6430    -0.4890    -5.4660 nh         1 MON      -0.769300
      3 N3           0.2570    -0.3790    -4.1790 nb         1 MON      -0.894000
      4 N4          -1.8870    -0.3250    -3.1830 nb         1 MON      -0.834000
      5 C5          -3.0800    -0.5690    -5.6620 c6         1 MON       0.225300
      6 C6          -0.8700    -0.6030    -6.6890 c6         1 MON       0.225300
      7 C7           0.7630    -0.2830    -2.9510 ca         1 MON       0.968900
      8 C8          -1.2600    -0.2330    -2.0260 ca         1 MON       0.847300
      9 C9          -3.5230     0.4440    -6.7040 c6         1 MON       0.137300
     10 C10         -1.3580     0.4130    -7.7090 c6         1 MON       0.137300
     11 N11          0.0410    -0.2030    -1.8220 nb         1 MON      -0.863000
     12 N12          2.0940    -0.2730    -2.8310 nu         1 MON      -0.866900
     13 S13         -2.3330    -0.1410    -0.6440 ss         1 MON      -0.273400
     14 N14         -2.7800     0.2360    -7.9330 n7         1 MON      -0.807200
     15 C15          2.7960    -0.1010    -1.5780 c3         1 MON       0.240800
     16 C16         -1.1760    -0.0720     0.7530 c3         1 MON      -0.004300
     17 C17          4.2760    -0.4270    -1.7540 c3         1 MON      -0.043100
     18 C18         -1.9690     0.0060     2.0490 c3         1 MON      -0.067400
     19 C19          5.0220    -0.2600    -0.4610 ca         1 MON      -0.122300
     20 C20         -1.0280     0.0440     3.2550 c3         1 MON      -0.030100
     21 C21          5.2070    -1.3340     0.4060 ca         1 MON      -0.083000
     22 C22          5.5120     0.9820    -0.0660 ca         1 MON      -0.083000
     23 C23         -1.7850     0.1090     4.5510 ca         1 MON      -0.077300
     24 C24          5.8570    -1.1850     1.6210 ca         1 MON      -0.192000
     25 C25          6.1640     1.1520     1.1470 ca         1 MON      -0.192000
     26 C26         -2.1730    -1.0560     5.2070 ca         1 MON      -0.117000
     27 C27         -2.1540     1.3320     5.1060 ca         1 MON      -0.117000
     28 C28          6.3390     0.0660     2.0000 ca         1 MON       0.142100
     29 C29         -2.9060    -1.0120     6.3840 ca         1 MON      -0.119500
     30 C30         -2.8870     1.3980     6.2820 ca         1 MON      -0.119500
     31 O31          6.9650     0.1670     3.1920 oh         1 MON      -0.493100
     32 C32         -3.2570     0.2200     6.9120 ca         1 MON       0.027400
     33 CL33        -4.1690     0.2900     8.3870 cl         1 MON      -0.115400
     34 H51         -3.3380    -1.5780    -6.0030 h1         1 MON       0.069200
     35 H52         -3.5900    -0.3910    -4.7210 h1         1 MON       0.069200
     36 H61          0.1820    -0.4440    -6.4710 h1         1 MON       0.069200
     37 H62         -0.9830    -1.6140    -7.0950 h1         1 MON       0.069200
     38 H91         -4.5880     0.3060    -6.8970 h1         1 MON       0.040200
     39 H92         -3.3920     1.4570    -6.2900 h1         1 MON       0.040200
     40 H101        -0.8200     0.2560    -8.6460 h1         1 MON       0.040200
     41 H102        -1.1050     1.4220    -7.3470 h1         1 MON       0.040200
     42 H12          2.6240    -0.2560    -3.6880 hn         1 MON       0.447800
     43 H14         -3.0980     0.8850    -8.6400 hn         1 MON       0.358800
     44 H151         2.3600    -0.7560    -0.8230 h1         1 MON       0.056200
     45 H152         2.6860     0.9240    -1.2080 h1         1 MON       0.056200
     46 H161        -0.5470    -0.9630     0.7350 h1         1 MON       0.074700
     47 H162        -0.5290     0.7970     0.6380 h1         1 MON       0.074700
     48 H171         4.7030     0.2240    -2.5220 hc         1 MON       0.051700
     49 H172         4.3780    -1.4540    -2.1140 hc         1 MON       0.051700
     50 H181        -2.6010     0.8990     2.0520 hc         1 MON       0.055200
     51 H182        -2.6370    -0.8560     2.1370 hc         1 MON       0.055200
     52 H201        -0.3620     0.9060     3.1670 hc         1 MON       0.050700
     53 H202        -0.3920    -0.8450     3.2430 hc         1 MON       0.050700
     54 H21          4.8410    -2.3150     0.1260 ha         1 MON       0.131500
     55 H22          5.3870     1.8390    -0.7180 ha         1 MON       0.131500
     56 H24          5.9950    -2.0360     2.2760 ha         1 MON       0.140000
     57 H25          6.5360     2.1320     1.4250 ha         1 MON       0.140000
     58 H26         -1.8980    -2.0200     4.7980 ha         1 MON       0.135000
     59 H27         -1.8650     2.2550     4.6180 ha         1 MON       0.135000
     60 H29         -3.1920    -1.9280     6.8830 ha         1 MON       0.147000
     61 H30         -3.1610     2.3550     6.7040 ha         1 MON       0.147000
     62 H31          7.2530     1.0730     3.3430 ho         1 MON       0.426000
@<TRIPOS>BOND
     1     1     2 1   
     2     1     3 ar  
     3     1     4 ar  
     4     2     5 1   
     5     2     6 1   
     6     3     7 ar  
     7     4     8 ar  
     8     5     9 1   
     9     5    34 1   
    10     5    35 1   
    11     6    10 1   
    12     6    36 1   
    13     6    37 1   
    14     7    11 ar  
    15     7    12 1   
    16     8    11 ar  
    17     8    13 1   
    18     9    14 1   
    19     9    38 1   
    20     9    39 1   
    21    10    14 1   
    22    10    40 1   
    23    10    41 1   
    24    12    15 1   
    25    12    42 1   
    26    13    16 1   
    27    14    43 1   
    28    15    17 1   
    29    15    44 1   
    30    15    45 1   
    31    16    18 1   
    32    16    46 1   
    33    16    47 1   
    34    17    19 1   
    35    17    48 1   
    36    17    49 1   
    37    18    20 1   
    38    18    50 1   
    39    18    51 1   
    40    19    21 ar  
    41    19    22 ar  
    42    20    23 1   
    43    20    52 1   
    44    20    53 1   
    45    21    24 ar  
    46    21    54 1   
    47    22    25 ar  
    48    22    55 1   
    49    23    26 ar  
    50    23    27 ar  
    51    24    28 ar  
    52    24    56 1   
    53    25    28 ar  
    54    25    57 1   
    55    26    29 ar  
    56    26    58 1   
    57    27    30 ar  
    58    27    59 1   
    59    28    31 1   
    60    29    32 ar  
    61    29    60 1   
    62    30    32 ar  
    63    30    61 1   
    64    31    62 1   
    65    32    33 1   
@<TRIPOS>SUBSTRUCTURE
     1 MON         1 TEMP              0 ****  ****    0 ROOT
