@<TRIPOS>MOLECULE
MOP
   19    18     1     0     0
SMALL
No Charge or Current Charge


@<TRIPOS>ATOM
      1 C1          -0.0570    -0.4040    -2.3280 c          1 MOP       0.573900
      2 O1          -0.9140     0.1780    -2.9850 o          1 MOP      -0.515100
      3 C2           0.4880     0.1290    -1.0000 c3         1 MOP      -0.204400
      4 C3          -0.4300    -0.2600     0.1870 c3         1 MOP      -0.064400
      5 C4          -0.0220     0.3590     1.5520 c3         1 MOP      -0.060700
      6 C5          -1.0810     0.0530     2.6360 c3         1 MOP      -0.088100
      7 CM4          1.3840    -0.0850     2.0210 c3         1 MOP      -0.088100
      8 H1           0.3610    -1.3790    -2.6630 h4         1 MOP      -0.021800
      9 H21          0.5650     1.2220    -1.0550 hc         1 MOP       0.067200
     10 H22          1.4710    -0.3250    -0.8340 hc         1 MOP       0.067200
     11 H31         -0.4600    -1.3540     0.2780 hc         1 MOP       0.042200
     12 H32         -1.4530     0.0600    -0.0480 hc         1 MOP       0.042200
     13 H4           0.0030     1.4500     1.4280 hc         1 MOP       0.047700
     14 H51         -0.8190     0.5390     3.5830 hc         1 MOP       0.033367
     15 H52         -2.0680     0.4220     2.3300 hc         1 MOP       0.033367
     16 H53         -1.1580    -1.0270     2.8130 hc         1 MOP       0.033367
     17 HM41         1.4440    -1.1780     2.0970 hc         1 MOP       0.033367
     18 HM42         2.1600     0.2560     1.3260 hc         1 MOP       0.033367
     19 HM43         1.6150     0.3390     3.0050 hc         1 MOP       0.033367
@<TRIPOS>BOND
     1     1     2 2   
     2     1     3 1   
     3     1     8 1   
     4     3     4 1   
     5     3     9 1   
     6     3    10 1   
     7     4     5 1   
     8     4    11 1   
     9     4    12 1   
    10     5     6 1   
    11     5     7 1   
    12     5    13 1   
    13     6    14 1   
    14     6    15 1   
    15     6    16 1   
    16     7    17 1   
    17     7    18 1   
    18     7    19 1   
@<TRIPOS>SUBSTRUCTURE
     1 MOP         1 TEMP              0 ****  ****    0 ROOT
