@<TRIPOS>MOLECULE
MOP
   19    18     1     0     0
SMALL
bcc


@<TRIPOS>ATOM
      1 C1          -0.0400    -0.4090    -2.2570 c          1 MOP       0.573900
      2 O1          -0.2960     0.1810    -3.2780 o          1 MOP      -0.515100
      3 C2           0.4060     0.2240    -0.9790 c3         1 MOP      -0.204400
      4 C3          -0.4510    -0.2370     0.2010 c3         1 MOP      -0.064400
      5 C4          -0.0230     0.3590     1.5440 c3         1 MOP      -0.060700
      6 C5          -1.0400     0.0010     2.6230 c3         1 MOP      -0.088100
      7 CM4          1.3750    -0.0880     1.9580 c3         1 MOP      -0.088100
      8 H1          -0.1200    -1.5120    -2.2120 h4         1 MOP      -0.021800
      9 H21          0.3990     1.3120    -1.0770 hc         1 MOP       0.067200
     10 H22          1.4450    -0.0880    -0.8240 hc         1 MOP       0.067200
     11 H31         -0.4250    -1.3300     0.2680 hc         1 MOP       0.042200
     12 H32         -1.4940     0.0350     0.0120 hc         1 MOP       0.042200
     13 H4          -0.0150     1.4500     1.4360 hc         1 MOP       0.047700
     14 H51         -0.7680     0.4400     3.5840 hc         1 MOP       0.033367
     15 H52         -2.0380     0.3580     2.3650 hc         1 MOP       0.033367
     16 H53         -1.0990    -1.0820     2.7600 hc         1 MOP       0.033367
     17 HM41         1.4180    -1.1740     2.0800 hc         1 MOP       0.033367
     18 HM42         2.1350     0.1930     1.2280 hc         1 MOP       0.033367
     19 HM43         1.6600     0.3620     2.9100 hc         1 MOP       0.033367
@<TRIPOS>BOND
     1     1     2 2   
     2     1     3 1   
     3     1     8 1   
     4     3     4 1   
     5     3     9 1   
     6     3    10 1   
     7     4     5 1   
     8     4    11 1   
     9     4    12 1   
    10     5     6 1   
    11     5     7 1   
    12     5    13 1   
    13     6    14 1   
    14     6    15 1   
    15     6    16 1   
    16     7    17 1   
    17     7    18 1   
    18     7    19 1   
@<TRIPOS>SUBSTRUCTURE
     1 MOP         1 TEMP              0 ****  ****    0 ROOT
