@<TRIPOS>MOLECULE
MOQ
  110   111     1     0     0
SMALL
No Charge or Current Charge


@<TRIPOS>ATOM
      1 C11         -2.2520    -1.2290    -2.8300 c          1 MOQ       0.718000
      2 O5          -1.4150    -1.0620    -3.7080 o          1 MOQ      -0.711500
      3 O6          -2.2730    -2.2190    -2.1090 o          1 MOQ      -0.711500
      4 C12         -3.4620    -0.2220    -2.7770 c3         1 MOQ      -0.018300
      5 N3          -3.1130     1.1210    -2.2350 ns         1 MOQ      -0.466900
      6 C13         -4.7670    -0.8390    -2.1760 c3         1 MOQ      -0.111700
      7 C14         -4.7530    -1.0040    -0.6370 c          1 MOQ       0.626100
      8 O7          -4.8810    -0.0720     0.1450 o          1 MOQ      -0.679100
      9 C15         -6.0370    -0.0800    -2.6340 c3         1 MOQ      -0.068100
     10 N4          -4.6580    -2.3060    -0.1970 ns         1 MOQ      -0.505900
     11 C16         -4.9210    -2.7690     1.1920 c3         1 MOQ       0.040700
     12 C17         -3.6560    -2.7050     2.1080 c          1 MOQ       0.588100
     13 O8          -3.6800    -3.0270     3.2900 o          1 MOQ      -0.624100
     14 C18         -5.5850    -4.1770     1.1940 c3         1 MOQ      -0.051700
     15 C19         -6.9650    -4.1690     0.4920 c3         1 MOQ      -0.090600
     16 C20         -4.6670    -5.2820     0.6140 c3         1 MOQ      -0.090600
     17 C33          5.7330    -0.2170     1.2910 c3         1 MOQ       0.140900
     18 O10          6.1310    -0.4820    -0.0670 os         1 MOQ      -0.482000
     19 C32          5.0730    -0.8460    -0.9870 c3         1 MOQ       0.173300
     20 C34          5.6530    -0.6820    -2.4140 c3         1 MOQ      -0.040100
     21 C35          5.9650     0.7720    -2.7560 ca         1 MOQ      -0.053300
     22 C36          7.2990     1.2090    -2.8750 ca         1 MOQ      -0.101500
     23 C37          7.5810     2.5510    -3.1870 ca         1 MOQ      -0.117000
     24 C38          6.5310     3.4640    -3.3810 ca         1 MOQ      -0.128000
     25 C39          5.1980     3.0350    -3.2640 ca         1 MOQ      -0.117000
     26 C40          4.9160     1.6930    -2.9530 ca         1 MOQ      -0.101500
     27 C30          4.5400    -2.2960    -0.7020 c3         1 MOQ      -0.031500
     28 C31          5.6480    -3.3240    -0.3570 c3         1 MOQ      -0.072100
     29 C29          3.4010    -2.3160     0.3150 c2         1 MOQ      -0.247200
     30 C27          2.1090    -1.9530     0.1150 ce         1 MOQ      -0.044200
     31 C28          1.5980    -1.4100    -1.2190 c3         1 MOQ      -0.075900
     32 C26          1.1290    -2.0560     1.2180 ce         1 MOQ      -0.150000
     33 C24         -1.2550    -1.9220     2.1880 c3         1 MOQ       0.159900
     34 N5          -2.5030    -2.2580     1.5050 ns         1 MOQ      -0.486900
     35 C22         -1.4220    -0.6720     3.1220 c3         1 MOQ      -0.148700
     36 C23         -2.4430     0.4070     2.6600 c3         1 MOQ      -0.098100
     37 C21         -0.0900    -0.0090     3.5160 c          1 MOQ       0.603100
     38 O9           0.3420    -0.0720     4.6590 o          1 MOQ      -0.578100
     39 N1           0.5080     0.7550     2.5290 ns         1 MOQ      -0.470900
     40 C1           1.7280     1.5810     2.6910 c3         1 MOQ      -0.023300
     41 C2           2.8550     0.8710     3.5300 c          1 MOQ       0.742000
     42 O1           3.3800     1.5090     4.4340 o          1 MOQ      -0.723000
     43 C3           2.2800     2.0600     1.3200 c3         1 MOQ      -0.079400
     44 C4           1.5300     3.2630     0.6790 c3         1 MOQ      -0.158400
     45 C5           0.3840     2.8640    -0.2860 c          1 MOQ       0.617100
     46 O2           0.6710     2.4310    -1.3960 o          1 MOQ      -0.588100
     47 O3           3.1740    -0.2780     3.2550 o          1 MOQ      -0.723000
     48 N2          -0.9740     3.1060     0.0710 n          1 MOQ      -0.344000
     49 C6          -1.3500     3.6520     1.3930 c3         1 MOQ       0.098300
     50 C7          -2.0500     2.8810    -0.8760 ce         1 MOQ      -0.050600
     51 C8          -2.1870     1.4030    -1.2420 c          1 MOQ       0.599300
     52 O4          -1.5470     0.5170    -0.7010 o          1 MOQ      -0.594100
     53 C9          -2.7950     3.9020    -1.3770 c2         1 MOQ      -0.188200
     54 C10         -2.6370     5.3750    -1.0550 c3         1 MOQ      -0.048900
     55 H12         -3.6910    -0.0420    -3.8360 h1         1 MOQ       0.024700
     56 HN3         -3.5880     1.9190    -2.6320 hn         1 MOQ       0.294500
     57 H13         -4.8390    -1.8430    -2.6120 hc         1 MOQ       0.058700
     58 H151        -6.0980    -0.0480    -3.7290 hc         1 MOQ       0.025033
     59 H152        -6.9380    -0.5790    -2.2590 hc         1 MOQ       0.025033
     60 H153        -6.0360     0.9510    -2.2600 hc         1 MOQ       0.025033
     61 HN4         -4.4960    -3.0030    -0.9160 hn         1 MOQ       0.385500
     62 H16         -5.6360    -2.0660     1.6400 h1         1 MOQ       0.058700
     63 H18         -5.7760    -4.4400     2.2420 hc         1 MOQ       0.047700
     64 H191        -6.8650    -3.9580    -0.5800 hc         1 MOQ       0.034867
     65 H192        -7.4590    -5.1410     0.6020 hc         1 MOQ       0.034867
     66 H193        -7.6180    -3.4060     0.9330 hc         1 MOQ       0.034867
     67 H201        -3.7110    -5.3230     1.1500 hc         1 MOQ       0.034867
     68 H202        -5.1440    -6.2650     0.7110 hc         1 MOQ       0.034867
     69 H203        -4.4590    -5.1120    -0.4490 hc         1 MOQ       0.034867
     70 H331         5.3620    -1.1240     1.7830 h1         1 MOQ       0.047033
     71 H332         6.5870     0.1510     1.8730 h1         1 MOQ       0.047033
     72 H333         4.9470     0.5480     1.3230 h1         1 MOQ       0.047033
     73 H32          4.2320    -0.1460    -0.8950 h1         1 MOQ       0.067700
     74 H341         6.5470    -1.3080    -2.5210 hc         1 MOQ       0.042700
     75 H342         4.9260    -1.0660    -3.1410 hc         1 MOQ       0.042700
     76 H36          8.1180     0.5100    -2.7220 ha         1 MOQ       0.121000
     77 H37          8.6130     2.8820    -3.2770 ha         1 MOQ       0.098500
     78 H38          6.7490     4.5020    -3.6220 ha         1 MOQ       0.093000
     79 H39          4.3840     3.7400    -3.4130 ha         1 MOQ       0.098500
     80 H40          3.8810     1.3700    -2.8650 ha         1 MOQ       0.121000
     81 H30          4.1170    -2.6630    -1.6450 hc         1 MOQ       0.045700
     82 H311         6.1220    -3.0960     0.6050 hc         1 MOQ       0.023700
     83 H312         5.2230    -4.3330    -0.2930 hc         1 MOQ       0.023700
     84 H313         6.4250    -3.3350    -1.1300 hc         1 MOQ       0.023700
     85 H281         0.8810    -2.1020    -1.6760 hc         1 MOQ       0.053700
     86 H282         1.0930    -0.4470    -1.0840 hc         1 MOQ       0.053700
     87 H283         2.3880    -1.2400    -1.9570 hc         1 MOQ       0.053700
     88 H24         -0.9810    -2.7760     2.8240 h1         1 MOQ       0.078700
     89 HN5         -2.5890    -2.0130     0.5260 hn         1 MOQ       0.336500
     90 H22         -1.8340    -1.0700     4.0570 hc         1 MOQ       0.058700
     91 H231        -3.4580     0.0020     2.5940 hc         1 MOQ       0.037700
     92 H232        -2.4720     1.2330     3.3810 hc         1 MOQ       0.037700
     93 H233        -2.1730     0.8240     1.6890 hc         1 MOQ       0.037700
     94 HN1          0.0680     0.7180     1.6180 hn         1 MOQ       0.271500
     95 H1           1.4330     2.4690     3.2650 h1         1 MOQ       0.015700
     96 H31          3.3140     2.3860     1.4860 hc         1 MOQ       0.071200
     97 H32A         2.3420     1.2180     0.6190 hc         1 MOQ       0.071200
     98 H41          1.1890     3.9260     1.4800 hc         1 MOQ       0.041700
     99 H42          2.2680     3.8090     0.0800 hc         1 MOQ       0.041700
    100 H61         -1.0390     4.7020     1.4630 h1         1 MOQ       0.034033
    101 H62         -2.4370     3.5940     1.5280 h1         1 MOQ       0.034033
    102 H63         -0.8700     3.0760     2.1930 h1         1 MOQ       0.034033
    103 H101        -3.0670     5.6130    -0.0740 hc         1 MOQ       0.037700
    104 H102        -1.5810     5.6710    -1.0440 hc         1 MOQ       0.037700
    105 H103        -3.1470     5.9980    -1.8000 hc         1 MOQ       0.037700
    106 H291         3.6990    -2.6860     1.2970 ha         1 MOQ       0.174000
    107 H261         1.5320    -2.3570     2.1870 ha         1 MOQ       0.174000
    108 H251        -0.6100    -1.5340     0.1370 ha         1 MOQ       0.203000
    109 H91         -3.5970     3.7120    -2.0910 ha         1 MOQ       0.192000
    110 C25         -0.1990    -1.8080     1.1050 c2         1 MOQ      -0.238200
@<TRIPOS>BOND
     1     1     2 1   
     2     1     3 1   
     3     1     4 1   
     4     4     5 1   
     5     4     6 1   
     6     4    55 1   
     7     5    51 1   
     8     5    56 1   
     9     6     7 1   
    10     6     9 1   
    11     6    57 1   
    12     7     8 2   
    13     7    10 1   
    14     9    58 1   
    15     9    59 1   
    16     9    60 1   
    17    10    11 1   
    18    10    61 1   
    19    11    12 1   
    20    11    14 1   
    21    11    62 1   
    22    12    13 2   
    23    12    34 1   
    24    14    15 1   
    25    14    16 1   
    26    14    63 1   
    27    15    64 1   
    28    15    65 1   
    29    15    66 1   
    30    16    67 1   
    31    16    68 1   
    32    16    69 1   
    33    17    18 1   
    34    17    70 1   
    35    17    71 1   
    36    17    72 1   
    37    18    19 1   
    38    19    20 1   
    39    19    27 1   
    40    19    73 1   
    41    20    21 1   
    42    20    74 1   
    43    20    75 1   
    44    21    22 ar  
    45    21    26 ar  
    46    22    23 ar  
    47    22    76 1   
    48    23    24 ar  
    49    23    77 1   
    50    24    25 ar  
    51    24    78 1   
    52    25    26 ar  
    53    25    79 1   
    54    26    80 1   
    55    27    28 1   
    56    27    29 1   
    57    27    81 1   
    58    28    82 1   
    59    28    83 1   
    60    28    84 1   
    61    29    30 2   
    62    29   106 1   
    63    30    31 1   
    64    30    32 1   
    65    31    85 1   
    66    31    86 1   
    67    31    87 1   
    68    32   107 1   
    69    32   110 2   
    70    33    34 1   
    71    33    35 1   
    72    33    88 1   
    73    33   110 1   
    74    34    89 1   
    75    35    36 1   
    76    35    37 1   
    77    35    90 1   
    78    36    91 1   
    79    36    92 1   
    80    36    93 1   
    81    37    38 2   
    82    37    39 1   
    83    39    40 1   
    84    39    94 1   
    85    40    41 1   
    86    40    43 1   
    87    40    95 1   
    88    41    42 1   
    89    41    47 1   
    90    43    44 1   
    91    43    96 1   
    92    43    97 1   
    93    44    45 1   
    94    44    98 1   
    95    44    99 1   
    96    45    46 2   
    97    45    48 1   
    98    48    49 1   
    99    48    50 1   
   100    49   100 1   
   101    49   101 1   
   102    49   102 1   
   103    50    51 1   
   104    50    53 2   
   105    51    52 2   
   106    53    54 1   
   107    53   109 1   
   108    54   103 1   
   109    54   104 1   
   110    54   105 1   
   111   108   110 1   
@<TRIPOS>SUBSTRUCTURE
     1 MOQ         1 TEMP              0 ****  ****    0 ROOT
