@<TRIPOS>MOLECULE
MOQ
  110   111     1     0     0
SMALL
bcc


@<TRIPOS>ATOM
      1 C11         -3.2280    -1.6430    -2.8710 c          1 MOQ       0.928600
      2 O5          -2.0910    -1.4950    -3.3270 o          1 MOQ      -0.816800
      3 O6          -3.8450    -2.7280    -2.7170 o          1 MOQ      -0.816800
      4 C12         -4.0440    -0.3620    -2.5470 c3         1 MOQ      -0.018300
      5 N3          -3.2150     0.8200    -2.5190 ns         1 MOQ      -0.533900
      6 C13         -5.0940    -0.4570    -1.4110 c3         1 MOQ      -0.111700
      7 C14         -4.7030    -1.0230    -0.0400 c          1 MOQ       0.693100
      8 O7          -4.9070    -0.3940     0.9960 o          1 MOQ      -0.679100
      9 C15         -5.7980     0.8840    -1.2460 c3         1 MOQ      -0.068100
     10 N4          -4.2760    -2.2970    -0.0240 ns         1 MOQ      -0.572900
     11 C16         -4.2290    -3.1140     1.1750 c3         1 MOQ       0.040700
     12 C17         -2.8540    -3.0650     1.8680 c          1 MOQ       0.655100
     13 O8          -2.1610    -4.0530     2.0530 o          1 MOQ      -0.624100
     14 C18         -4.7070    -4.5420     0.8880 c3         1 MOQ      -0.051700
     15 C19         -6.2050    -4.5460     0.6000 c3         1 MOQ      -0.090600
     16 C20         -3.9460    -5.2500    -0.2320 c3         1 MOQ      -0.090600
     17 C33          4.7740     0.0610     1.0660 c3         1 MOQ       0.117700
     18 O10          5.2680    -0.6750    -0.0290 os         1 MOQ      -0.435600
     19 C32          4.3770    -0.7810    -1.1160 c3         1 MOQ       0.150100
     20 C34          5.1150    -0.3820    -2.3940 c3         1 MOQ      -0.040100
     21 C35          5.6020     1.0390    -2.3300 ca         1 MOQ      -0.053300
     22 C36          6.9610     1.3380    -2.3300 ca         1 MOQ      -0.119500
     23 C37          7.4070     2.6530    -2.2650 ca         1 MOQ      -0.135000
     24 C38          6.4920     3.6950    -2.1920 ca         1 MOQ      -0.146000
     25 C39          5.1320     3.4090    -2.1820 ca         1 MOQ      -0.135000
     26 C40          4.6930     2.0950    -2.2510 ca         1 MOQ      -0.119500
     27 C30          3.7590    -2.1940    -1.1950 c3         1 MOQ      -0.031500
     28 C31          4.8080    -3.3020    -1.1940 c3         1 MOQ      -0.072100
     29 C29          2.7760    -2.3640    -0.0750 c2         1 MOQ      -0.197200
     30 C27          1.5000    -1.9460    -0.0870 ce         1 MOQ      -0.044200
     31 C28          0.8450    -1.3490    -1.2990 c3         1 MOQ      -0.075900
     32 C26          0.7300    -2.0090     1.1530 ce         1 MOQ      -0.100000
     33 C24         -1.1650    -1.4730     2.6810 c3         1 MOQ       0.159900
     34 N5          -2.5260    -1.8350     2.3070 ns         1 MOQ      -0.553900
     35 C22         -1.1960    -0.2390     3.6300 c3         1 MOQ      -0.148700
     36 C23         -2.2430     0.8040     3.2440 c3         1 MOQ      -0.098100
     37 C21          0.2350     0.2920     3.7550 c          1 MOQ       0.670100
     38 O9           1.1720    -0.4800     3.8820 o          1 MOQ      -0.578100
     39 N1           0.3880     1.6280     3.7150 ns         1 MOQ      -0.537900
     40 C1           1.6330     2.2970     3.3710 c3         1 MOQ      -0.023300
     41 C2           2.8220     1.8390     4.2540 c          1 MOQ       0.952600
     42 O1           2.5810     1.7320     5.4710 o          1 MOQ      -0.828300
     43 C3           1.8450     2.2340     1.8560 c3         1 MOQ      -0.079400
     44 C4           0.7350     2.9990     1.1290 c3         1 MOQ      -0.158400
     45 C5           0.4920     2.5250    -0.2860 c          1 MOQ       0.684100
     46 O2           1.3500     1.9450    -0.9210 o          1 MOQ      -0.588100
     47 O3           3.9250     1.7050     3.6950 o          1 MOQ      -0.828300
     48 N2          -0.7550     2.7790    -0.8040 n          1 MOQ      -0.411000
     49 C6          -1.7560     3.5340    -0.0680 c3         1 MOQ       0.098300
     50 C7          -1.2150     2.0340    -1.9110 ce         1 MOQ      -0.050600
     51 C8          -2.2830     1.0320    -1.5780 c          1 MOQ       0.666300
     52 O4          -2.3090     0.4800    -0.4900 o          1 MOQ      -0.594100
     53 C9          -0.6830     2.1120    -3.1310 c2         1 MOQ      -0.138200
     54 C10          0.3870     3.0460    -3.5740 c3         1 MOQ      -0.048900
     55 H12         -4.6650    -0.2240    -3.4390 h1         1 MOQ       0.024700
     56 HN3         -3.1380     1.3330    -3.3810 hn         1 MOQ       0.294500
     57 H13         -5.8330    -1.1670    -1.7940 hc         1 MOQ       0.058700
     58 H151        -6.1080     1.2670    -2.2190 hc         1 MOQ       0.025033
     59 H152        -6.6930     0.7900    -0.6310 hc         1 MOQ       0.025033
     60 H153        -5.1520     1.6280    -0.7850 hc         1 MOQ       0.025033
     61 HN4         -4.1160    -2.7320    -0.9350 hn         1 MOQ       0.385500
     62 H16         -4.9310    -2.6730     1.8920 h1         1 MOQ       0.058700
     63 H18         -4.5460    -5.1080     1.8100 hc         1 MOQ       0.047700
     64 H191        -6.4440    -3.9620    -0.2910 hc         1 MOQ       0.034867
     65 H192        -6.5630    -5.5630     0.4320 hc         1 MOQ       0.034867
     66 H193        -6.7760    -4.1290     1.4330 hc         1 MOQ       0.034867
     67 H201        -2.8680    -5.1810    -0.1070 hc         1 MOQ       0.034867
     68 H202        -4.2110    -6.3080    -0.2440 hc         1 MOQ       0.034867
     69 H203        -4.1990    -4.8510    -1.2160 hc         1 MOQ       0.034867
     70 H331         3.8900    -0.3940     1.5200 h1         1 MOQ       0.047033
     71 H332         5.5610     0.1080     1.8180 h1         1 MOQ       0.047033
     72 H333         4.5060     1.0830     0.7810 h1         1 MOQ       0.047033
     73 H32          3.5470    -0.0730    -0.9880 h1         1 MOQ       0.067700
     74 H341         5.9540    -1.0570    -2.5790 hc         1 MOQ       0.042700
     75 H342         4.4250    -0.4990    -3.2350 hc         1 MOQ       0.042700
     76 H36          7.6830     0.5310    -2.3820 ha         1 MOQ       0.139000
     77 H37          8.4690     2.8610    -2.2690 ha         1 MOQ       0.116500
     78 H38          6.8350     4.7210    -2.1410 ha         1 MOQ       0.111000
     79 H39          4.4090     4.2120    -2.1190 ha         1 MOQ       0.116500
     80 H40          3.6280     1.8940    -2.2250 ha         1 MOQ       0.139000
     81 H30          3.2200    -2.2350    -2.1480 hc         1 MOQ       0.045700
     82 H311         5.3830    -3.2990    -0.2670 hc         1 MOQ       0.023700
     83 H312         4.3330    -4.2790    -1.2850 hc         1 MOQ       0.023700
     84 H313         5.5080    -3.2010    -2.0240 hc         1 MOQ       0.023700
     85 H281        -0.2240    -1.5510    -1.3290 hc         1 MOQ       0.053700
     86 H282         0.9580    -0.2650    -1.3160 hc         1 MOQ       0.053700
     87 H283         1.2760    -1.7300    -2.2250 hc         1 MOQ       0.053700
     88 H24         -0.7450    -2.3030     3.2480 h1         1 MOQ       0.078700
     89 HN5         -3.1200    -1.0850     1.9740 hn         1 MOQ       0.336500
     90 H22         -1.4690    -0.6210     4.6200 hc         1 MOQ       0.058700
     91 H231        -3.2480     0.3920     3.3220 hc         1 MOQ       0.037700
     92 H232        -2.2400     1.6550     3.9260 hc         1 MOQ       0.037700
     93 H233        -2.1180     1.1700     2.2240 hc         1 MOQ       0.037700
     94 HN1         -0.4400     2.1840     3.6060 hn         1 MOQ       0.271500
     95 H1           1.4740     3.3480     3.6470 h1         1 MOQ       0.015700
     96 H31          2.8200     2.6480     1.6010 hc         1 MOQ       0.071200
     97 H32A         1.8640     1.1890     1.5400 hc         1 MOQ       0.071200
     98 H41         -0.1990     2.9230     1.6870 hc         1 MOQ       0.041700
     99 H42          0.9650     4.0710     1.1080 hc         1 MOQ       0.041700
    100 H61         -1.3280     4.4510     0.3320 h1         1 MOQ       0.034033
    101 H62         -2.5500     3.8250    -0.7530 h1         1 MOQ       0.034033
    102 H63         -2.2030     2.9670     0.7500 h1         1 MOQ       0.034033
    103 H101         0.5290     3.8700    -2.8780 hc         1 MOQ       0.037700
    104 H102         1.3390     2.5220    -3.6700 hc         1 MOQ       0.037700
    105 H103         0.1440     3.4540    -4.5560 hc         1 MOQ       0.037700
    106 H291         3.1710    -2.7710     0.8540 ha         1 MOQ       0.124000
    107 H261         1.1340    -2.6530     1.9300 ha         1 MOQ       0.124000
    108 H251        -0.7960    -0.6330     0.6790 ha         1 MOQ       0.153000
    109 H91         -1.0440     1.4090    -3.8740 ha         1 MOQ       0.142000
    110 C25         -0.3740    -1.3080     1.4140 c2         1 MOQ      -0.188200
@<TRIPOS>BOND
     1     1     2 1   
     2     1     3 1   
     3     1     4 1   
     4     4     5 1   
     5     4     6 1   
     6     4    55 1   
     7     5    51 1   
     8     5    56 1   
     9     6     7 1   
    10     6     9 1   
    11     6    57 1   
    12     7     8 2   
    13     7    10 1   
    14     9    58 1   
    15     9    59 1   
    16     9    60 1   
    17    10    11 1   
    18    10    61 1   
    19    11    12 1   
    20    11    14 1   
    21    11    62 1   
    22    12    13 2   
    23    12    34 1   
    24    14    15 1   
    25    14    16 1   
    26    14    63 1   
    27    15    64 1   
    28    15    65 1   
    29    15    66 1   
    30    16    67 1   
    31    16    68 1   
    32    16    69 1   
    33    17    18 1   
    34    17    70 1   
    35    17    71 1   
    36    17    72 1   
    37    18    19 1   
    38    19    20 1   
    39    19    27 1   
    40    19    73 1   
    41    20    21 1   
    42    20    74 1   
    43    20    75 1   
    44    21    22 ar  
    45    21    26 ar  
    46    22    23 ar  
    47    22    76 1   
    48    23    24 ar  
    49    23    77 1   
    50    24    25 ar  
    51    24    78 1   
    52    25    26 ar  
    53    25    79 1   
    54    26    80 1   
    55    27    28 1   
    56    27    29 1   
    57    27    81 1   
    58    28    82 1   
    59    28    83 1   
    60    28    84 1   
    61    29    30 2   
    62    29   106 1   
    63    30    31 1   
    64    30    32 1   
    65    31    85 1   
    66    31    86 1   
    67    31    87 1   
    68    32   107 1   
    69    32   110 2   
    70    33    34 1   
    71    33    35 1   
    72    33    88 1   
    73    33   110 1   
    74    34    89 1   
    75    35    36 1   
    76    35    37 1   
    77    35    90 1   
    78    36    91 1   
    79    36    92 1   
    80    36    93 1   
    81    37    38 2   
    82    37    39 1   
    83    39    40 1   
    84    39    94 1   
    85    40    41 1   
    86    40    43 1   
    87    40    95 1   
    88    41    42 1   
    89    41    47 1   
    90    43    44 1   
    91    43    96 1   
    92    43    97 1   
    93    44    45 1   
    94    44    98 1   
    95    44    99 1   
    96    45    46 2   
    97    45    48 1   
    98    48    49 1   
    99    48    50 1   
   100    49   100 1   
   101    49   101 1   
   102    49   102 1   
   103    50    51 1   
   104    50    53 2   
   105    51    52 2   
   106    53    54 1   
   107    53   109 1   
   108    54   103 1   
   109    54   104 1   
   110    54   105 1   
   111   108   110 1   
@<TRIPOS>SUBSTRUCTURE
     1 MOQ         1 TEMP              0 ****  ****    0 ROOT
