@<TRIPOS>MOLECULE
MOR
   17    17     1     0     0
SMALL
bcc


@<TRIPOS>ATOM
      1 O1          -2.4700     0.0680    -0.0190 os         1 MOR      -0.432600
      2 C2          -1.7820    -1.1060     0.3560 c6         1 MOR       0.119400
      3 C3          -0.4210    -1.2020    -0.3070 c6         1 MOR       0.072000
      4 N4           0.3530    -0.0160    -0.0260 n          1 MOR      -0.517800
      5 C5          -0.3480     1.2040    -0.3530 c6         1 MOR       0.072000
      6 C6          -1.7140     1.2140     0.3090 c6         1 MOR       0.119400
      7 C            1.7620    -0.0610    -0.1550 c          1 MOR       1.014600
      8 O            2.2880    -1.1930    -0.1640 o          1 MOR      -0.841300
      9 H21         -1.6580    -1.1420     1.4480 h1         1 MOR       0.025200
     10 H22         -2.4050    -1.9540     0.0610 h1         1 MOR       0.025200
     11 H31          0.0960    -2.0790     0.0780 h1         1 MOR       0.033700
     12 H32         -0.5570    -1.3540    -1.3900 h1         1 MOR       0.033700
     13 H51          0.2180     2.0620     0.0010 h1         1 MOR       0.033700
     14 H52         -0.4740     1.3240    -1.4410 h1         1 MOR       0.033700
     15 H61         -2.2840     2.0840    -0.0220 h1         1 MOR       0.025200
     16 H62         -1.5890     1.2870     1.3990 h1         1 MOR       0.025200
     17 O3           2.3540     1.0360    -0.2210 o          1 MOR      -0.841300
@<TRIPOS>BOND
     1     1     2 1   
     2     1     6 1   
     3     2     3 1   
     4     2     9 1   
     5     2    10 1   
     6     3     4 1   
     7     3    11 1   
     8     3    12 1   
     9     4     5 1   
    10     4     7 1   
    11     5     6 1   
    12     5    13 1   
    13     5    14 1   
    14     6    15 1   
    15     6    16 1   
    16     7     8 1   
    17     7    17 1   
@<TRIPOS>SUBSTRUCTURE
     1 MOR         1 TEMP              0 ****  ****    0 ROOT
