@<TRIPOS>MOLECULE
MOR
   17    17     1     0     0
SMALL
No Charge or Current Charge


@<TRIPOS>ATOM
      1 O1          -2.4670     0.0650    -0.1670 os         1 MOR      -0.479000
      2 C2          -1.8520    -1.1350     0.3340 c6         1 MOR       0.142600
      3 C3          -0.3960    -1.2730    -0.1870 c6         1 MOR       0.072000
      4 N4           0.4300    -0.0200    -0.1440 n          1 MOR      -0.450800
      5 C5          -0.3200     1.2770    -0.2390 c6         1 MOR       0.072000
      6 C6          -1.7820     1.2460     0.2860 c6         1 MOR       0.142600
      7 C            1.8190    -0.0660    -0.3710 c          1 MOR       0.737000
      8 O            2.3620    -1.1560    -0.4380 o          1 MOR      -0.736000
      9 H21         -1.8540    -1.1040     1.4330 h1         1 MOR       0.025200
     10 H22         -2.4460    -2.0040     0.0180 h1         1 MOR       0.025200
     11 H31          0.1020    -2.0590     0.3980 h1         1 MOR       0.033700
     12 H32         -0.4310    -1.6230    -1.2290 h1         1 MOR       0.033700
     13 H51          0.2230     2.0550     0.3150 h1         1 MOR       0.033700
     14 H52         -0.3360     1.5860    -1.2940 h1         1 MOR       0.033700
     15 H61         -2.3240     2.1360    -0.0650 h1         1 MOR       0.025200
     16 H62         -1.7840     1.2600     1.3850 h1         1 MOR       0.025200
     17 O3           2.4260     0.9860    -0.4820 o          1 MOR      -0.736000
@<TRIPOS>BOND
     1     1     2 1   
     2     1     6 1   
     3     2     3 1   
     4     2     9 1   
     5     2    10 1   
     6     3     4 1   
     7     3    11 1   
     8     3    12 1   
     9     4     5 1   
    10     4     7 1   
    11     5     6 1   
    12     5    13 1   
    13     5    14 1   
    14     6    15 1   
    15     6    16 1   
    16     7     8 1   
    17     7    17 1   
@<TRIPOS>SUBSTRUCTURE
     1 MOR         1 TEMP              0 ****  ****    0 ROOT
