@<TRIPOS>MOLECULE
MOT
   52    54     1     0     0
SMALL
No Charge or Current Charge


@<TRIPOS>ATOM
      1 N1          28.1470    11.5630    -4.4690 nb         1 MOT      -0.262000
      2 C2          26.8920    11.3340    -4.0450 ca         1 MOT       0.414900
      3 NA2         26.0520    10.7620    -4.9370 nv         1 MOT      -1.052900
      4 N3          26.3610    11.5980    -2.8370 nb         1 MOT      -0.352000
      5 C4          27.1840    12.1640    -1.9430 ca         1 MOT       0.456900
      6 NA4         26.6440    12.4170    -0.7300 nv         1 MOT      -1.067900
      7 C4A         28.5100    12.4500    -2.2730 ca         1 MOT      -0.313800
      8 C6          29.6260    13.0580    -1.5500 cc         1 MOT      -0.127400
      9 C7          30.6570    13.0420    -2.4850 cd         1 MOT      -0.061900
     10 O8          30.2350    12.4840    -3.6690 os         1 MOT      -0.291400
     11 C8A         28.9300    12.1290    -3.5410 ca         1 MOT       0.329300
     12 C9          29.6580    13.6030    -0.1400 c3         1 MOT       0.309000
     13 N10         30.9700    14.1550     0.2760 nh         1 MOT      -0.852400
     14 CM          31.9380    13.2010     0.8640 c3         1 MOT       0.228100
     15 C11         31.8530    18.3210    -0.0370 ca         1 MOT      -0.147600
     16 C12         30.9490    17.7030    -0.9330 ca         1 MOT      -0.039000
     17 C13         30.6610    16.3310    -0.8250 ca         1 MOT      -0.202500
     18 C14         31.2610    15.5390     0.1720 ca         1 MOT       0.306000
     19 C15         32.1610    16.1530     1.0620 ca         1 MOT      -0.202500
     20 C16         32.4530    17.5240     0.9610 ca         1 MOT      -0.039000
     21 O           32.9810    20.3230     0.6630 o          1 MOT      -0.658100
     22 N           31.5670    20.5270    -1.1040 ns         1 MOT      -0.444900
     23 CA          31.7770    21.9690    -1.3780 c3         1 MOT      -0.037300
     24 CT          30.5260    22.5580    -2.1040 c          1 MOT       0.712000
     25 O1          30.0660    21.9450    -3.0590 o          1 MOT      -0.743500
     26 O2          29.9700    23.5270    -1.6050 o          1 MOT      -0.743500
     27 CB          33.0920    22.2070    -2.1700 c3         1 MOT      -0.044400
     28 CG          33.4460    23.7020    -2.3740 c3         1 MOT      -0.187400
     29 CD          34.7960    23.8350    -3.0990 c          1 MOT       0.708000
     30 OE1         35.8140    23.8750    -2.4250 o          1 MOT      -0.771000
     31 OE2         34.7990    23.8540    -4.3200 o          1 MOT      -0.771000
     32 HN21        25.1760    10.3770    -4.5920 hn         1 MOT       0.485000
     33 HN22        26.4440    10.3360    -5.7740 hn         1 MOT       0.485000
     34 HN41        27.2710    12.5380     0.0570 hn         1 MOT       0.489500
     35 HN42        25.7390    12.0020    -0.5230 hn         1 MOT       0.489500
     36 H7          31.6820    13.4000    -2.4120 h4         1 MOT       0.257000
     37 H91         28.8830    14.3760    -0.0440 h1         1 MOT       0.048200
     38 H92         29.3710    12.7960     0.5490 h1         1 MOT       0.048200
     39 HM1         31.8670    13.2080     1.9600 h1         1 MOT       0.027700
     40 HM2         31.7430    12.1800     0.5090 h1         1 MOT       0.027700
     41 HM3         32.9630    13.4650     0.5720 h1         1 MOT       0.027700
     42 H12         30.4600    18.2670    -1.7240 ha         1 MOT       0.134500
     43 H13         29.9710    15.8890    -1.5370 ha         1 MOT       0.100000
     44 H15         32.6350    15.5770     1.8500 ha         1 MOT       0.100000
     45 H16         33.1520    17.9670     1.6690 ha         1 MOT       0.134500
     46 HN          30.9190    20.0300    -1.7020 hn         1 MOT       0.328500
     47 HA          31.8600    22.4840    -0.4120 h1         1 MOT       0.053700
     48 HB1         33.9190    21.7230    -1.6370 hc         1 MOT       0.032700
     49 HB2         33.0190    21.7150    -3.1480 hc         1 MOT       0.032700
     50 HG1         32.6440    24.1250    -2.9910 hc         1 MOT       0.032700
     51 HG2         33.5090    24.1360    -1.3690 hc         1 MOT       0.032700
     52 C           32.1930    19.7970    -0.1150 c          1 MOT       0.583700
@<TRIPOS>BOND
     1     1     2 ar  
     2     1    11 ar  
     3     2     3 1   
     4     2     4 ar  
     5     3    32 1   
     6     3    33 1   
     7     4     5 ar  
     8     5     6 1   
     9     5     7 ar  
    10     6    34 1   
    11     6    35 1   
    12     7     8 1   
    13     7    11 ar  
    14     8     9 2   
    15     8    12 1   
    16     9    10 1   
    17     9    36 1   
    18    10    11 1   
    19    12    13 1   
    20    12    37 1   
    21    12    38 1   
    22    13    14 1   
    23    13    18 1   
    24    14    39 1   
    25    14    40 1   
    26    14    41 1   
    27    15    16 ar  
    28    15    20 ar  
    29    15    52 1   
    30    16    17 ar  
    31    16    42 1   
    32    17    18 ar  
    33    17    43 1   
    34    18    19 ar  
    35    19    20 ar  
    36    19    44 1   
    37    20    45 1   
    38    21    52 2   
    39    22    23 1   
    40    22    46 1   
    41    22    52 1   
    42    23    24 1   
    43    23    27 1   
    44    23    47 1   
    45    24    25 1   
    46    24    26 1   
    47    27    28 1   
    48    27    48 1   
    49    27    49 1   
    50    28    29 1   
    51    28    50 1   
    52    28    51 1   
    53    29    30 1   
    54    29    31 1   
@<TRIPOS>SUBSTRUCTURE
     1 MOT         1 TEMP              0 ****  ****    0 ROOT
