@<TRIPOS>MOLECULE
MOT
   52    54     1     0     0
SMALL
abcg2


@<TRIPOS>ATOM
      1 N1          28.5220    11.8850    -4.4640 nb         1 MOT      -0.262000
      2 C2          27.2340    11.5820    -4.2210 ca         1 MOT       0.414900
      3 NA2         26.5090    11.0910    -5.2640 nv         1 MOT      -1.052900
      4 N3          26.5770    11.7460    -3.0590 nb         1 MOT      -0.352000
      5 C4          27.2290    12.2640    -2.0090 ca         1 MOT       0.456900
      6 NA4         26.5260    12.4450    -0.8690 nv         1 MOT      -1.067900
      7 C4A         28.5880    12.6230    -2.1420 ca         1 MOT      -0.313800
      8 C6          29.6560    13.1860    -1.3430 cc         1 MOT      -0.127400
      9 C7          30.7270    13.2510    -2.1640 cd         1 MOT      -0.061900
     10 O8          30.4280    12.7680    -3.4360 os         1 MOT      -0.291400
     11 C8A         29.1270    12.3930    -3.4050 ca         1 MOT       0.329300
     12 C9          29.6060    13.6040     0.0980 c3         1 MOT       0.309000
     13 N10         30.8430    14.1790     0.5880 nh         1 MOT      -0.852400
     14 CM          31.8340    13.2780     1.1550 c3         1 MOT       0.228100
     15 C11         31.8230    18.2250    -0.0940 ca         1 MOT      -0.147600
     16 C12         30.6120    17.6870    -0.5470 ca         1 MOT      -0.039000
     17 C13         30.2840    16.3600    -0.3380 ca         1 MOT      -0.202500
     18 C14         31.1610    15.4920     0.3480 ca         1 MOT       0.306000
     19 C15         32.3870    16.0340     0.7920 ca         1 MOT      -0.202500
     20 C16         32.6930    17.3660     0.5800 ca         1 MOT      -0.039000
     21 O           33.1300    20.1540     0.4010 o          1 MOT      -0.658100
     22 N           31.5400    20.3600    -1.1940 ns         1 MOT      -0.444900
     23 CA          31.7350    21.7790    -1.4450 c3         1 MOT      -0.037300
     24 CT          30.4410    22.3410    -2.0840 c          1 MOT       0.712000
     25 O1          29.7630    21.5400    -2.7800 o          1 MOT      -0.743500
     26 O2          30.1890    23.5520    -1.8800 o          1 MOT      -0.743500
     27 CB          32.9550    22.0120    -2.3570 c3         1 MOT      -0.044400
     28 CG          33.3820    23.4690    -2.4650 c3         1 MOT      -0.187400
     29 CD          34.6500    23.7410    -3.2970 c          1 MOT       0.708000
     30 OE1         35.3340    22.7620    -3.6940 o          1 MOT      -0.771000
     31 OE2         34.9140    24.9550    -3.5100 o          1 MOT      -0.771000
     32 HN21        25.6340    10.6420    -5.0500 hn         1 MOT       0.485000
     33 HN22        27.0200    10.7380    -6.0570 hn         1 MOT       0.485000
     34 HN41        26.9990    12.6430    -0.0040 hn         1 MOT       0.489500
     35 HN42        25.6110    12.0300    -0.8070 hn         1 MOT       0.489500
     36 H7          31.7330    13.6010    -2.0250 h4         1 MOT       0.257000
     37 H91         28.7860    14.3100     0.2510 h1         1 MOT       0.048200
     38 H92         29.3710    12.7370     0.7190 h1         1 MOT       0.048200
     39 HM1         32.1240    13.5870     2.1620 h1         1 MOT       0.027700
     40 HM2         31.4060    12.2810     1.2140 h1         1 MOT       0.027700
     41 HM3         32.7380    13.2280     0.5390 h1         1 MOT       0.027700
     42 H12         29.8900    18.3070    -1.0620 ha         1 MOT       0.134500
     43 H13         29.3420    15.9980    -0.7200 ha         1 MOT       0.100000
     44 H15         33.1010    15.4120     1.3110 ha         1 MOT       0.100000
     45 H16         33.6350    17.7570     0.9400 ha         1 MOT       0.134500
     46 HN          30.8270    19.9360    -1.7690 hn         1 MOT       0.328500
     47 HA          31.9050    22.2780    -0.4900 h1         1 MOT       0.053700
     48 HB1         33.7820    21.4230    -1.9600 hc         1 MOT       0.032700
     49 HB2         32.7290    21.6070    -3.3480 hc         1 MOT       0.032700
     50 HG1         32.5760    24.0780    -2.8770 hc         1 MOT       0.032700
     51 HG2         33.5690    23.8720    -1.4630 hc         1 MOT       0.032700
     52 C           32.2170    19.6510    -0.2750 c          1 MOT       0.583700
@<TRIPOS>BOND
     1     1     2 ar  
     2     1    11 ar  
     3     2     3 1   
     4     2     4 ar  
     5     3    32 1   
     6     3    33 1   
     7     4     5 ar  
     8     5     6 1   
     9     5     7 ar  
    10     6    34 1   
    11     6    35 1   
    12     7     8 1   
    13     7    11 ar  
    14     8     9 2   
    15     8    12 1   
    16     9    10 1   
    17     9    36 1   
    18    10    11 1   
    19    12    13 1   
    20    12    37 1   
    21    12    38 1   
    22    13    14 1   
    23    13    18 1   
    24    14    39 1   
    25    14    40 1   
    26    14    41 1   
    27    15    16 ar  
    28    15    20 ar  
    29    15    52 1   
    30    16    17 ar  
    31    16    42 1   
    32    17    18 ar  
    33    17    43 1   
    34    18    19 ar  
    35    19    20 ar  
    36    19    44 1   
    37    20    45 1   
    38    21    52 2   
    39    22    23 1   
    40    22    46 1   
    41    22    52 1   
    42    23    24 1   
    43    23    27 1   
    44    23    47 1   
    45    24    25 1   
    46    24    26 1   
    47    27    28 1   
    48    27    48 1   
    49    27    49 1   
    50    28    29 1   
    51    28    50 1   
    52    28    51 1   
    53    29    30 1   
    54    29    31 1   
@<TRIPOS>SUBSTRUCTURE
     1 MOT         1 TEMP              0 ****  ****    0 ROOT
