@<TRIPOS>MOLECULE
MOU
  101   106     1     0     0
SMALL
No Charge or Current Charge


@<TRIPOS>ATOM
      1 C            2.3960    -1.0020    -1.1990 c5         1 MOU       0.348000
      2 O            3.1620     0.1770    -1.5480 os         1 MOU      -0.449100
      3 C1           4.3330     0.1600    -0.8420 c          1 MOU       0.645100
      4 C2           4.4470    -1.2240    -0.1710 c5         1 MOU       0.070300
      5 O3           3.3870    -1.9780    -0.7900 os         1 MOU      -0.445000
      6 C4          -0.1350    -7.3600    -4.0520 c2         1 MOU      -0.066400
      7 C5           0.7010    -6.5450    -4.7120 c2         1 MOU      -0.275200
      8 C6          -0.1190    -5.4020    -5.2900 c5         1 MOU      -0.032500
      9 C7          -0.8980    -6.1000    -6.4670 c5         1 MOU      -0.071400
     10 C8          -2.0500    -6.8730    -5.6790 c5         1 MOU      -0.143000
     11 C9          -1.5510    -6.7210    -4.1550 c5         1 MOU      -0.110800
     12 C10         -1.1870    -5.1800    -4.1390 c5         1 MOU      -0.021000
     13 C13         -2.4320    -4.2220    -4.4420 c6         1 MOU      -0.046400
     14 C14         -3.4620    -6.1330    -5.8020 c5         1 MOU      -0.055700
     15 C15         -3.2670    -4.6040    -5.7010 c5         1 MOU      -0.056700
     16 C16         -4.7250    -4.1090    -5.9220 c5         1 MOU      -0.054700
     17 C17         -5.1830    -5.0610    -7.1020 c5         1 MOU      -0.077400
     18 C18         -4.0920    -6.1940    -7.2130 c5         1 MOU      -0.077400
     19 C19         -5.6660    -4.1500    -4.6890 c3         1 MOU      -0.084100
     20 C20          0.2310    -8.6560    -3.3090 c3         1 MOU      -0.012500
     21 C21          1.3250    -9.4620    -4.0440 c3         1 MOU      -0.084100
     22 C22          0.6300    -8.3560    -1.8490 c3         1 MOU      -0.084100
     23 C26         -0.5290    -4.6600    -2.8130 c3         1 MOU       0.177600
     24 O27          0.1170    -3.4030    -3.0840 os         1 MOU      -0.445000
     25 C28          0.8540    -2.8250    -1.9920 c6         1 MOU       0.412300
     26 O29         -0.0780    -2.4830    -0.9430 os         1 MOU      -0.473000
     27 C30          0.5530    -1.9990     0.2630 c6         1 MOU       0.177300
     28 C31          1.3610    -0.6940    -0.0480 c6         1 MOU       0.110300
     29 C32          1.6350    -1.5440    -2.4520 c6         1 MOU       0.148300
     30 O33          0.7700    -0.5260    -3.0410 oh         1 MOU      -0.678000
     31 C34         -0.5840    -1.8270     1.3000 c3         1 MOU      -0.084100
     32 O35          1.9960    -0.1250     1.1330 os         1 MOU      -0.457000
     33 C36          1.2880     0.9130     1.8380 c3         1 MOU       0.149900
     34 O37          5.1300     1.0880    -0.8230 o          1 MOU      -0.495000
     35 C38          5.8080    -1.9230    -0.4020 c3         1 MOU      -0.073400
     36 C39          5.9140    -3.3210     0.2490 c3         1 MOU      -0.073400
     37 C40          7.2910    -3.9870     0.0330 c3         1 MOU      -0.075400
     38 C41          7.3950    -5.3850     0.6810 c3         1 MOU      -0.073400
     39 C42          8.7760    -6.0470     0.4740 c3         1 MOU      -0.071400
     40 C43          8.8770    -7.4470     1.1240 c3         1 MOU      -0.042400
     41 C44         10.2720    -8.1160     1.0080 c3         1 MOU      -0.206400
     42 C45         10.6250    -8.4490    -0.4550 c          1 MOU       0.712000
     43 O46         11.2660    -7.6320    -1.0990 o          1 MOU      -0.742000
     44 O47         10.2340    -9.5120    -0.9140 o          1 MOU      -0.742000
     45 H441        10.1840    -9.0420     1.5900 hc         1 MOU       0.012200
     46 H442        10.9910    -7.4030     1.4310 hc         1 MOU       0.012200
     47 H431         8.1220    -8.1080     0.6790 hc         1 MOU       0.016200
     48 H432         8.6250    -7.3580     2.1880 hc         1 MOU       0.016200
     49 H421         8.9710    -6.1270    -0.6020 hc         1 MOU       0.044200
     50 H422         9.5530    -5.3970     0.8950 hc         1 MOU       0.044200
     51 H411         7.1960    -5.2980     1.7570 hc         1 MOU       0.029700
     52 H412         6.6170    -6.0350     0.2620 hc         1 MOU       0.029700
     53 H401         8.0740    -3.3390     0.4470 hc         1 MOU       0.036200
     54 H402         7.4840    -4.0740    -1.0440 hc         1 MOU       0.036200
     55 H391         5.1330    -3.9730    -0.1620 hc         1 MOU       0.044700
     56 H392         5.7220    -3.2320     1.3260 hc         1 MOU       0.044700
     57 H381         5.9930    -2.0160    -1.4790 hc         1 MOU       0.054700
     58 H382         6.6100    -1.2890    -0.0040 hc         1 MOU       0.054700
     59 H2           4.2500    -1.1110     0.9030 h1         1 MOU       0.089700
     60 H32          2.3860    -1.8650    -3.1890 h1         1 MOU       0.070700
     61 H33          1.3460     0.2470    -3.2430 ho         1 MOU       0.500000
     62 H28          1.5720    -3.5700    -1.6160 h2         1 MOU       0.048700
     63 H261         0.2010    -5.3850    -2.4310 h1         1 MOU       0.058200
     64 H262        -1.2970    -4.5320    -2.0400 h1         1 MOU       0.058200
     65 H131        -2.0910    -3.1830    -4.5470 hc         1 MOU       0.050700
     66 H132        -3.0930    -4.2270    -3.5660 hc         1 MOU       0.050700
     67 H15         -2.6870    -4.1770    -6.5240 hc         1 MOU       0.032700
     68 H16         -4.7200    -3.0650    -6.2550 hc         1 MOU       0.027700
     69 H191        -5.3170    -3.4710    -3.9030 hc         1 MOU       0.031700
     70 H192        -6.6780    -3.8310    -4.9660 hc         1 MOU       0.031700
     71 H193        -5.7470    -5.1520    -4.2540 hc         1 MOU       0.031700
     72 H171        -5.2690    -4.5130    -8.0470 hc         1 MOU       0.024700
     73 H172        -6.1720    -5.4890    -6.9040 hc         1 MOU       0.024700
     74 H181        -4.5340    -7.1720    -7.4360 hc         1 MOU       0.032700
     75 H182        -3.3710    -5.9740    -8.0100 hc         1 MOU       0.032700
     76 H14         -4.1690    -6.5200    -5.0600 hc         1 MOU       0.086700
     77 H71         -1.2290    -5.4150    -7.2490 hc         1 MOU       0.039200
     78 H72         -0.2250    -6.7820    -7.0000 hc         1 MOU       0.039200
     79 H6           0.4670    -4.5190    -5.5720 hc         1 MOU       0.057700
     80 H5           1.7750    -6.6890    -4.8250 ha         1 MOU       0.182000
     81 H20         -0.6550    -9.3030    -3.2830 hc         1 MOU       0.085700
     82 H211         2.2780    -8.9200    -4.0530 hc         1 MOU       0.030867
     83 H212         1.0270    -9.6550    -5.0820 hc         1 MOU       0.030867
     84 H213         1.4880   -10.4280    -3.5520 hc         1 MOU       0.030867
     85 H221        -0.1830    -7.8380    -1.3250 hc         1 MOU       0.030867
     86 H222         1.5210    -7.7180    -1.8130 hc         1 MOU       0.030867
     87 H223         0.8470    -9.2840    -1.3070 hc         1 MOU       0.030867
     88 H30          1.2390    -2.7740     0.6350 h1         1 MOU       0.058700
     89 H341        -0.1790    -1.6430     2.3020 hc         1 MOU       0.042367
     90 H342        -1.2440    -0.9920     1.0360 hc         1 MOU       0.042367
     91 H343        -1.1960    -2.7340     1.3630 hc         1 MOU       0.042367
     92 H31          0.6530     0.0510    -0.4410 h1         1 MOU       0.077700
     93 H361         1.8730     1.2490     2.7040 h1         1 MOU       0.028700
     94 H362         0.3150     0.5650     2.2020 h1         1 MOU       0.028700
     95 H363         1.1220     1.7790     1.1850 h1         1 MOU       0.028700
     96 C11         -2.1750    -8.3710    -6.1040 c          1 MOU       0.631900
     97 O12         -1.4880    -8.9630    -6.9340 o          1 MOU      -0.562100
     98 H11         -3.0140    -8.9130    -5.6180 h4         1 MOU      -0.006800
     99 C23         -2.6000    -7.1910    -3.0600 c          1 MOU       0.730000
    100 O24         -3.1780    -8.2590    -3.2150 o          1 MOU      -0.730000
    101 O25         -2.8460    -6.4940    -2.0850 o          1 MOU      -0.730000
@<TRIPOS>BOND
     1     1     2 1   
     2     1     5 1   
     3     1    28 1   
     4     1    29 1   
     5     2     3 1   
     6     3     4 1   
     7     3    34 2   
     8     4     5 1   
     9     4    35 1   
    10     4    59 1   
    11     6     7 2   
    12     6    11 1   
    13     6    20 1   
    14     7     8 1   
    15     7    80 1   
    16     8     9 1   
    17     8    12 1   
    18     8    79 1   
    19     9    10 1   
    20     9    77 1   
    21     9    78 1   
    22    10    11 1   
    23    10    14 1   
    24    10    96 1   
    25    11    12 1   
    26    11    99 1   
    27    12    13 1   
    28    12    23 1   
    29    13    15 1   
    30    13    65 1   
    31    13    66 1   
    32    14    15 1   
    33    14    18 1   
    34    14    76 1   
    35    15    16 1   
    36    15    67 1   
    37    16    17 1   
    38    16    19 1   
    39    16    68 1   
    40    17    18 1   
    41    17    72 1   
    42    17    73 1   
    43    18    74 1   
    44    18    75 1   
    45    19    69 1   
    46    19    70 1   
    47    19    71 1   
    48    20    21 1   
    49    20    22 1   
    50    20    81 1   
    51    21    82 1   
    52    21    83 1   
    53    21    84 1   
    54    22    85 1   
    55    22    86 1   
    56    22    87 1   
    57    23    24 1   
    58    23    63 1   
    59    23    64 1   
    60    24    25 1   
    61    25    26 1   
    62    25    29 1   
    63    25    62 1   
    64    26    27 1   
    65    27    28 1   
    66    27    31 1   
    67    27    88 1   
    68    28    32 1   
    69    28    92 1   
    70    29    30 1   
    71    29    60 1   
    72    30    61 1   
    73    31    89 1   
    74    31    90 1   
    75    31    91 1   
    76    32    33 1   
    77    33    93 1   
    78    33    94 1   
    79    33    95 1   
    80    35    36 1   
    81    35    57 1   
    82    35    58 1   
    83    36    37 1   
    84    36    55 1   
    85    36    56 1   
    86    37    38 1   
    87    37    53 1   
    88    37    54 1   
    89    38    39 1   
    90    38    51 1   
    91    38    52 1   
    92    39    40 1   
    93    39    49 1   
    94    39    50 1   
    95    40    41 1   
    96    40    47 1   
    97    40    48 1   
    98    41    42 1   
    99    41    45 1   
   100    41    46 1   
   101    42    43 1   
   102    42    44 1   
   103    96    97 2   
   104    96    98 1   
   105    99   100 1   
   106    99   101 1   
@<TRIPOS>SUBSTRUCTURE
     1 MOU         1 TEMP              0 ****  ****    0 ROOT
