@<TRIPOS>MOLECULE
MOU
  101   106     1     0     0
SMALL
abcg2


@<TRIPOS>ATOM
      1 C            2.0900    -0.9480    -0.7850 c5         1 MOU       0.348000
      2 O            2.8810     0.1800    -1.1280 os         1 MOU      -0.449100
      3 C1           4.0960     0.0730    -0.5890 c          1 MOU       0.645100
      4 C2           4.2150    -1.2920     0.0440 c5         1 MOU       0.070300
      5 O3           2.9740    -1.8940    -0.2510 os         1 MOU      -0.445000
      6 C4           0.3300    -6.9350    -3.5310 c2         1 MOU      -0.066400
      7 C5           1.0950    -5.9660    -4.0350 c2         1 MOU      -0.275200
      8 C6           0.2020    -5.0170    -4.7890 c5         1 MOU      -0.032500
      9 C7          -0.1960    -5.8850    -6.0240 c5         1 MOU      -0.071400
     10 C8          -1.2890    -6.8070    -5.4500 c5         1 MOU      -0.143000
     11 C9          -1.1170    -6.5790    -3.8790 c5         1 MOU      -0.110800
     12 C10         -1.0540    -5.0240    -3.8660 c5         1 MOU      -0.021000
     13 C13         -2.3360    -4.3310    -4.3670 c6         1 MOU      -0.046400
     14 C14         -2.6810    -6.3110    -5.8570 c5         1 MOU      -0.055700
     15 C15         -2.7910    -4.8020    -5.7290 c5         1 MOU      -0.056700
     16 C16         -4.2090    -4.5030    -6.2380 c5         1 MOU      -0.054700
     17 C17         -4.3910    -5.5610    -7.3650 c5         1 MOU      -0.077400
     18 C18         -3.1860    -6.5260    -7.2820 c5         1 MOU      -0.077400
     19 C19         -5.2950    -4.5930    -5.1720 c3         1 MOU      -0.084100
     20 C20          0.7630    -8.1480    -2.7630 c3         1 MOU      -0.012500
     21 C21          2.1660    -8.6020    -3.1490 c3         1 MOU      -0.084100
     22 C22          0.6830    -7.8810    -1.2550 c3         1 MOU      -0.084100
     23 C26         -0.7510    -4.4350    -2.4860 c3         1 MOU       0.177600
     24 O27         -0.1430    -3.1610    -2.6770 os         1 MOU      -0.445000
     25 C28          0.5060    -2.6570    -1.5850 c6         1 MOU       0.412300
     26 O29         -0.4450    -2.1680    -0.6660 os         1 MOU      -0.473000
     27 C30          0.1200    -1.7120     0.5490 c6         1 MOU       0.177300
     28 C31          1.0500    -0.5280     0.2520 c6         1 MOU       0.110300
     29 C32          1.4280    -1.5280    -2.0380 c6         1 MOU       0.148300
     30 O33          0.6630    -0.5590    -2.6970 oh         1 MOU      -0.678000
     31 C34         -1.0110    -1.3410     1.4830 c3         1 MOU      -0.084100
     32 O35          1.7310    -0.1130     1.4050 os         1 MOU      -0.457000
     33 C36          1.4170     1.1900     1.8490 c3         1 MOU       0.149900
     34 O37          4.9170     0.9400    -0.6560 o          1 MOU      -0.495000
     35 C38          5.3690    -2.0960    -0.5320 c3         1 MOU      -0.073400
     36 C39          5.5180    -3.4630     0.1230 c3         1 MOU      -0.073400
     37 C40          6.6330    -4.2880    -0.5070 c3         1 MOU      -0.075400
     38 C41          6.8520    -5.6270     0.1860 c3         1 MOU      -0.073400
     39 C42          7.9410    -6.4690    -0.4670 c3         1 MOU      -0.071400
     40 C43          8.1920    -7.7900     0.2470 c3         1 MOU      -0.042400
     41 C44          9.3260    -8.6000    -0.3650 c3         1 MOU      -0.206400
     42 C45          9.0580    -9.1580    -1.7750 c          1 MOU       0.712000
     43 O46         10.0600    -9.3640    -2.4920 o          1 MOU      -0.742000
     44 O47          7.8720    -9.3990    -2.0810 o          1 MOU      -0.742000
     45 H441         9.5440    -9.4590     0.2830 hc         1 MOU       0.012200
     46 H442        10.2450    -8.0060    -0.3780 hc         1 MOU       0.012200
     47 H431         7.2770    -8.3870     0.2450 hc         1 MOU       0.016200
     48 H432         8.4220    -7.5860     1.2990 hc         1 MOU       0.016200
     49 H421         7.6700    -6.6660    -1.5090 hc         1 MOU       0.044200
     50 H422         8.8720    -5.8910    -0.4960 hc         1 MOU       0.044200
     51 H411         7.1100    -5.4500     1.2360 hc         1 MOU       0.029700
     52 H412         5.9130    -6.1920     0.1960 hc         1 MOU       0.029700
     53 H401         7.5650    -3.7140    -0.4900 hc         1 MOU       0.036200
     54 H402         6.4010    -4.4590    -1.5640 hc         1 MOU       0.036200
     55 H391         4.5780    -4.0190     0.0540 hc         1 MOU       0.044700
     56 H392         5.7200    -3.3280     1.1910 hc         1 MOU       0.044700
     57 H381         5.2310    -2.2050    -1.6120 hc         1 MOU       0.054700
     58 H382         6.2850    -1.5190    -0.3860 hc         1 MOU       0.054700
     59 H2           4.3460    -1.1720     1.1270 h1         1 MOU       0.089700
     60 H32          2.2140    -1.9500    -2.6810 h1         1 MOU       0.070700
     61 H33          1.2540     0.0210    -3.1870 ho         1 MOU       0.500000
     62 H28          1.1190    -3.4340    -1.0920 h2         1 MOU       0.048700
     63 H261        -0.0820    -5.0750    -1.9060 h1         1 MOU       0.058200
     64 H262        -1.6780    -4.3330    -1.9180 h1         1 MOU       0.058200
     65 H131        -2.1840    -3.2470    -4.3660 hc         1 MOU       0.050700
     66 H132        -3.1130    -4.5360    -3.6250 hc         1 MOU       0.050700
     67 H15         -2.1250    -4.3600    -6.4770 hc         1 MOU       0.032700
     68 H16         -4.2450    -3.4950    -6.6610 hc         1 MOU       0.027700
     69 H191        -5.1810    -3.8130    -4.4170 hc         1 MOU       0.031700
     70 H192        -6.2830    -4.4750    -5.6190 hc         1 MOU       0.031700
     71 H193        -5.2850    -5.5550    -4.6530 hc         1 MOU       0.031700
     72 H171        -4.4620    -5.0940    -8.3480 hc         1 MOU       0.024700
     73 H172        -5.3240    -6.1110    -7.2170 hc         1 MOU       0.024700
     74 H181        -3.4700    -7.5560    -7.5000 hc         1 MOU       0.032700
     75 H182        -2.4100    -6.2470    -8.0030 hc         1 MOU       0.032700
     76 H14         -3.4150    -6.7760    -5.1880 hc         1 MOU       0.086700
     77 H71         -0.5510    -5.3030    -6.8750 hc         1 MOU       0.039200
     78 H72          0.6700    -6.4430    -6.3760 hc         1 MOU       0.039200
     79 H6           0.6240    -4.0460    -5.0440 hc         1 MOU       0.057700
     80 H5           2.1770    -5.9230    -4.0460 ha         1 MOU       0.182000
     81 H20          0.0660    -8.9570    -2.9900 hc         1 MOU       0.085700
     82 H211         2.9120    -7.8370    -2.9230 hc         1 MOU       0.030867
     83 H212         2.2240    -8.8220    -4.2150 hc         1 MOU       0.030867
     84 H213         2.4480    -9.5010    -2.5980 hc         1 MOU       0.030867
     85 H221        -0.3100    -7.5490    -0.9530 hc         1 MOU       0.030867
     86 H222         1.3940    -7.1030    -0.9670 hc         1 MOU       0.030867
     87 H223         0.9250    -8.7820    -0.6860 hc         1 MOU       0.030867
     88 H30          0.7140    -2.5160     1.0110 h1         1 MOU       0.058700
     89 H341        -0.6230    -1.0290     2.4510 hc         1 MOU       0.042367
     90 H342        -1.6150    -0.5290     1.0750 hc         1 MOU       0.042367
     91 H343        -1.6610    -2.2000     1.6530 hc         1 MOU       0.042367
     92 H31          0.4480     0.2830    -0.1780 h1         1 MOU       0.077700
     93 H361         2.0530     1.4040     2.7070 h1         1 MOU       0.028700
     94 H362         0.3720     1.2780     2.1630 h1         1 MOU       0.028700
     95 H363         1.6080     1.9430     1.0790 h1         1 MOU       0.028700
     96 C11         -1.1390    -8.2620    -5.7990 c          1 MOU       0.631900
     97 O12         -0.0840    -8.8290    -5.9660 o          1 MOU      -0.562100
     98 H11         -2.0850    -8.8110    -5.9360 h4         1 MOU      -0.006800
     99 C23         -2.1630    -7.3140    -3.0420 c          1 MOU       0.730000
    100 O24         -2.4240    -8.4830    -3.4030 o          1 MOU      -0.730000
    101 O25         -2.6470    -6.7230    -2.0580 o          1 MOU      -0.730000
@<TRIPOS>BOND
     1     1     2 1   
     2     1     5 1   
     3     1    28 1   
     4     1    29 1   
     5     2     3 1   
     6     3     4 1   
     7     3    34 2   
     8     4     5 1   
     9     4    35 1   
    10     4    59 1   
    11     6     7 2   
    12     6    11 1   
    13     6    20 1   
    14     7     8 1   
    15     7    80 1   
    16     8     9 1   
    17     8    12 1   
    18     8    79 1   
    19     9    10 1   
    20     9    77 1   
    21     9    78 1   
    22    10    11 1   
    23    10    14 1   
    24    10    96 1   
    25    11    12 1   
    26    11    99 1   
    27    12    13 1   
    28    12    23 1   
    29    13    15 1   
    30    13    65 1   
    31    13    66 1   
    32    14    15 1   
    33    14    18 1   
    34    14    76 1   
    35    15    16 1   
    36    15    67 1   
    37    16    17 1   
    38    16    19 1   
    39    16    68 1   
    40    17    18 1   
    41    17    72 1   
    42    17    73 1   
    43    18    74 1   
    44    18    75 1   
    45    19    69 1   
    46    19    70 1   
    47    19    71 1   
    48    20    21 1   
    49    20    22 1   
    50    20    81 1   
    51    21    82 1   
    52    21    83 1   
    53    21    84 1   
    54    22    85 1   
    55    22    86 1   
    56    22    87 1   
    57    23    24 1   
    58    23    63 1   
    59    23    64 1   
    60    24    25 1   
    61    25    26 1   
    62    25    29 1   
    63    25    62 1   
    64    26    27 1   
    65    27    28 1   
    66    27    31 1   
    67    27    88 1   
    68    28    32 1   
    69    28    92 1   
    70    29    30 1   
    71    29    60 1   
    72    30    61 1   
    73    31    89 1   
    74    31    90 1   
    75    31    91 1   
    76    32    33 1   
    77    33    93 1   
    78    33    94 1   
    79    33    95 1   
    80    35    36 1   
    81    35    57 1   
    82    35    58 1   
    83    36    37 1   
    84    36    55 1   
    85    36    56 1   
    86    37    38 1   
    87    37    53 1   
    88    37    54 1   
    89    38    39 1   
    90    38    51 1   
    91    38    52 1   
    92    39    40 1   
    93    39    49 1   
    94    39    50 1   
    95    40    41 1   
    96    40    47 1   
    97    40    48 1   
    98    41    42 1   
    99    41    45 1   
   100    41    46 1   
   101    42    43 1   
   102    42    44 1   
   103    96    97 2   
   104    96    98 1   
   105    99   100 1   
   106    99   101 1   
@<TRIPOS>SUBSTRUCTURE
     1 MOU         1 TEMP              0 ****  ****    0 ROOT
