@<TRIPOS>MOLECULE
MOX
   45    46     1     0     0
SMALL
No Charge or Current Charge


@<TRIPOS>ATOM
      1 C1           0.6580     1.4630    -2.2830 c          1 MOX       0.595900
      2 O1           0.8110     2.5150    -2.9060 o          1 MOX      -0.531100
      3 C2           1.1840     1.1660    -0.8310 c3         1 MOX       0.260400
      4 N2           0.0950     0.7120     0.0680 ns         1 MOX      -0.519900
      5 C3           2.2000    -0.0390    -0.9890 c6         1 MOX       0.328500
      6 O4           3.2290     0.3380    -1.9100 os         1 MOX      -0.458000
      7 C5           4.2200    -0.6770    -2.0700 c6         1 MOX       0.188800
      8 C6           4.8260    -1.0380    -0.7150 ce         1 MOX      -0.228800
      9 C7           3.8400    -1.1530     0.4110 ce         1 MOX       0.429600
     10 C8           4.0990    -2.0160     1.6860 c          1 MOX       0.641700
     11 N8           2.7090    -0.4890     0.3200 n2         1 MOX      -0.618900
     12 C9           6.1720    -1.1770    -0.6030 c2         1 MOX      -0.280000
     13 C21         -1.2280     1.0880     0.0430 c          1 MOX       0.646100
     14 O21         -1.6630     1.8710    -0.7860 o          1 MOX      -0.651100
     15 C22         -2.0880     0.4300     1.1120 c3         1 MOX      -0.252400
     16 C23         -3.2620    -0.3810     0.5410 ca         1 MOX      -0.025300
     17 C24         -3.3430    -1.7650     0.8010 ca         1 MOX      -0.054500
     18 C25         -4.4050    -2.5290     0.2840 ca         1 MOX      -0.189500
     19 C26         -5.3950    -1.9170    -0.4960 ca         1 MOX       0.093100
     20 O26         -6.4210    -2.6610    -0.9930 oh         1 MOX      -0.560100
     21 C27         -5.3280    -0.5420    -0.7620 ca         1 MOX      -0.189500
     22 C28         -4.2670     0.2230    -0.2460 ca         1 MOX      -0.054500
     23 C29         -2.5030     1.4900     2.1290 c          1 MOX       0.744000
     24 O30         -2.0570     1.3840     3.2620 o          1 MOX      -0.712000
     25 O31         -3.2830     2.3700     1.8000 o          1 MOX      -0.712000
     26 O61          1.9140     2.2990    -0.2610 os         1 MOX      -0.435000
     27 C62          1.1430     3.4570     0.1250 c3         1 MOX       0.140900
     28 O81          5.1010    -2.7240     1.7590 o          1 MOX      -0.703500
     29 O82          3.2750    -2.0130     2.6010 o          1 MOX      -0.703500
     30 H1           0.1090     0.6150    -2.7520 h4         1 MOX      -0.021800
     31 HN2          0.3640     0.0650     0.7990 hn         1 MOX       0.354500
     32 H3           1.6420    -0.8810    -1.4270 h2         1 MOX       0.038700
     33 H5           3.7590    -1.5660    -2.5260 h1         1 MOX       0.031700
     34 H5A          4.9940    -0.3050    -2.7560 h1         1 MOX       0.031700
     35 H9           6.8330    -1.0610    -1.4630 ha         1 MOX       0.157000
     36 H9A          6.6660    -1.3920     0.3450 ha         1 MOX       0.157000
     37 H22         -1.4330    -0.2600     1.6570 hc         1 MOX       0.058700
     38 H24         -2.5810    -2.2550     1.4040 ha         1 MOX       0.124000
     39 H25         -4.4550    -3.5950     0.4910 ha         1 MOX       0.095500
     40 HO26        -7.0100    -2.0690    -1.5080 ho         1 MOX       0.444000
     41 H27         -6.0930    -0.0600    -1.3660 ha         1 MOX       0.095500
     42 H28         -4.2300     1.2880    -0.4610 ha         1 MOX       0.124000
     43 H62          0.4600     3.2190     0.9500 h1         1 MOX       0.040367
     44 H62A         1.8110     4.2570     0.4680 h1         1 MOX       0.040367
     45 H62B         0.5530     3.8490    -0.7130 h1         1 MOX       0.040367
@<TRIPOS>BOND
     1     1     2 2   
     2     1     3 1   
     3     1    30 1   
     4     3     4 1   
     5     3     5 1   
     6     3    26 1   
     7     4    13 1   
     8     4    31 1   
     9     5     6 1   
    10     5    11 1   
    11     5    32 1   
    12     6     7 1   
    13     7     8 1   
    14     7    33 1   
    15     7    34 1   
    16     8     9 1   
    17     8    12 2   
    18     9    10 1   
    19     9    11 2   
    20    10    28 1   
    21    10    29 1   
    22    12    35 1   
    23    12    36 1   
    24    13    14 2   
    25    13    15 1   
    26    15    16 1   
    27    15    23 1   
    28    15    37 1   
    29    16    17 ar  
    30    16    22 ar  
    31    17    18 ar  
    32    17    38 1   
    33    18    19 ar  
    34    18    39 1   
    35    19    20 1   
    36    19    21 ar  
    37    20    40 1   
    38    21    22 ar  
    39    21    41 1   
    40    22    42 1   
    41    23    24 1   
    42    23    25 1   
    43    26    27 1   
    44    27    43 1   
    45    27    44 1   
    46    27    45 1   
@<TRIPOS>SUBSTRUCTURE
     1 MOX         1 TEMP              0 ****  ****    0 ROOT
