@<TRIPOS>MOLECULE
MOX
   45    46     1     0     0
SMALL
bcc


@<TRIPOS>ATOM
      1 C1           0.5300     1.3500    -2.1230 c          1 MOX       0.595900
      2 O1           0.8260     2.3300    -2.7510 o          1 MOX      -0.531100
      3 C2           1.1290     1.0130    -0.7530 c3         1 MOX       0.237200
      4 N2           0.1000     0.5480     0.1340 ns         1 MOX      -0.586900
      5 C3           2.0740    -0.1900    -0.9950 c6         1 MOX       0.305300
      6 O4           3.0430     0.2350    -1.9030 os         1 MOX      -0.411600
      7 C5           4.0650    -0.7290    -2.0590 c6         1 MOX       0.165600
      8 C6           4.7200    -0.9810    -0.7350 ce         1 MOX      -0.228800
      9 C7           3.7800    -0.9800     0.4010 ce         1 MOX       0.429600
     10 C8           4.2380    -1.4680     1.7740 c          1 MOX       0.852300
     11 N8           2.5590    -0.6450     0.2720 n2         1 MOX      -0.618900
     12 C9           6.0300    -1.1780    -0.6060 c2         1 MOX      -0.180000
     13 C21         -1.1810     0.9740     0.0910 c          1 MOX       0.713100
     14 O21         -1.5730     1.7400    -0.7770 o          1 MOX      -0.651100
     15 C22         -2.1000     0.4080     1.1490 c3         1 MOX      -0.252400
     16 C23         -3.2290    -0.3480     0.5090 ca         1 MOX      -0.025300
     17 C24         -3.2560    -1.7390     0.5510 ca         1 MOX      -0.072500
     18 C25         -4.2710    -2.4720    -0.0470 ca         1 MOX      -0.207500
     19 C26         -5.2950    -1.8120    -0.7150 ca         1 MOX       0.093100
     20 O26         -6.2680    -2.5560    -1.2830 oh         1 MOX      -0.521100
     21 C27         -5.2840    -0.4190    -0.7710 ca         1 MOX      -0.207500
     22 C28         -4.2650     0.2970    -0.1630 ca         1 MOX      -0.072500
     23 C29         -2.5220     1.5610     2.1130 c          1 MOX       0.954600
     24 O30         -1.6210     2.3800     2.3730 o          1 MOX      -0.817300
     25 O31         -3.6750     1.5330     2.5630 o          1 MOX      -0.817300
     26 O61          1.9130     2.0350    -0.2420 os         1 MOX      -0.388600
     27 C62          1.2480     3.1710     0.2780 c3         1 MOX       0.117700
     28 O81          4.6040    -2.6550     1.8050 o          1 MOX      -0.808800
     29 O82          4.1820    -0.6470     2.7010 o          1 MOX      -0.808800
     30 H1          -0.0930     0.5440    -2.5490 h4         1 MOX      -0.021800
     31 HN2          0.4060    -0.0480     0.8910 hn         1 MOX       0.354500
     32 H3           1.4670    -1.0040    -1.4260 h2         1 MOX       0.038700
     33 H5           3.6500    -1.6660    -2.4570 h1         1 MOX       0.031700
     34 H5A          4.7720    -0.3420    -2.7930 h1         1 MOX       0.031700
     35 H9           6.6860    -1.1350    -1.4660 ha         1 MOX       0.107000
     36 H9A          6.4940    -1.4040     0.3440 ha         1 MOX       0.107000
     37 H22         -1.5330    -0.2960     1.7690 hc         1 MOX       0.058700
     38 H24         -2.4650    -2.2720     1.0670 ha         1 MOX       0.142000
     39 H25         -4.2680    -3.5540     0.0060 ha         1 MOX       0.113500
     40 HO26        -6.9130    -1.9880    -1.7180 ho         1 MOX       0.405000
     41 H27         -6.0800     0.1110    -1.2840 ha         1 MOX       0.113500
     42 H28         -4.2860     1.3760    -0.2200 ha         1 MOX       0.142000
     43 H62          0.5600     2.9170     1.0870 h1         1 MOX       0.040367
     44 H62A         2.0250     3.8210     0.6780 h1         1 MOX       0.040367
     45 H62B         0.6980     3.7240    -0.4860 h1         1 MOX       0.040367
@<TRIPOS>BOND
     1     1     2 2   
     2     1     3 1   
     3     1    30 1   
     4     3     4 1   
     5     3     5 1   
     6     3    26 1   
     7     4    13 1   
     8     4    31 1   
     9     5     6 1   
    10     5    11 1   
    11     5    32 1   
    12     6     7 1   
    13     7     8 1   
    14     7    33 1   
    15     7    34 1   
    16     8     9 1   
    17     8    12 2   
    18     9    10 1   
    19     9    11 2   
    20    10    28 1   
    21    10    29 1   
    22    12    35 1   
    23    12    36 1   
    24    13    14 2   
    25    13    15 1   
    26    15    16 1   
    27    15    23 1   
    28    15    37 1   
    29    16    17 ar  
    30    16    22 ar  
    31    17    18 ar  
    32    17    38 1   
    33    18    19 ar  
    34    18    39 1   
    35    19    20 1   
    36    19    21 ar  
    37    20    40 1   
    38    21    22 ar  
    39    21    41 1   
    40    22    42 1   
    41    23    24 1   
    42    23    25 1   
    43    26    27 1   
    44    27    43 1   
    45    27    44 1   
    46    27    45 1   
@<TRIPOS>SUBSTRUCTURE
     1 MOX         1 TEMP              0 ****  ****    0 ROOT
