@<TRIPOS>MOLECULE
MOY
   42    44     1     0     0
SMALL
bcc


@<TRIPOS>ATOM
      1 S           -2.9910    -2.3690    -5.2790 s          1 MOY      -0.635400
      2 O3           1.2330     1.3790    -1.5900 o          1 MOY      -0.515100
      3 O4          -4.3170     2.9780    -2.2150 oh         1 MOY      -0.492100
      4 N1          -2.0320    -1.7520    -2.9250 ns         1 MOY      -0.493900
      5 N2          -1.1630    -0.5110    -4.6490 n          1 MOY      -0.342000
      6 C1          -2.0220    -1.4900    -4.2300 cs         1 MOY       0.596400
      7 C2          -0.1480    -0.0400    -3.8070 c2         1 MOY       0.114400
      8 C3          -0.2200    -0.2570    -2.4800 ce         1 MOY      -0.299400
      9 C4          -1.4290    -0.9340    -1.8970 c6         1 MOY       0.211200
     10 C6           1.0090     0.6260    -4.4860 c3         1 MOY      -0.070900
     11 C17          0.7900     0.2490    -1.5250 c          1 MOY       0.611900
     12 C18          1.2430    -0.6700    -0.4450 ca         1 MOY      -0.172600
     13 C19          1.3590    -2.0400    -0.6740 ca         1 MOY      -0.086500
     14 C20          1.8510    -2.8760     0.3170 ca         1 MOY      -0.140000
     15 C21          2.2120    -2.3490     1.5500 ca         1 MOY      -0.104000
     16 C22          2.0960    -0.9840     1.7860 ca         1 MOY      -0.140000
     17 C23          1.6250    -0.1450     0.7890 ca         1 MOY      -0.086500
     18 C24         -2.3990     0.0550    -1.2770 ca         1 MOY      -0.085300
     19 C25         -2.9400     1.0930    -2.0270 ca         1 MOY      -0.136000
     20 C26         -3.8230     1.9930    -1.4400 ca         1 MOY       0.141100
     21 C27         -4.1620     1.8570    -0.0940 ca         1 MOY      -0.212000
     22 C28         -3.6170     0.8240     0.6480 ca         1 MOY      -0.087000
     23 C29         -2.7390    -0.0800     0.0640 ca         1 MOY      -0.153000
     24 HO4         -4.8990     3.5510    -1.7020 ho         1 MOY       0.427000
     25 HN1         -2.6420    -2.4980    -2.6310 hn         1 MOY       0.355500
     26 H4          -1.1250    -1.6170    -1.1010 h1         1 MOY       0.076700
     27 H51         -0.8420     0.9240    -6.1330 h1         1 MOY       0.063033
     28 H52         -2.2190    -0.1310    -6.4010 h1         1 MOY       0.063033
     29 H53         -0.5880    -0.7450    -6.6790 h1         1 MOY       0.063033
     30 H61          1.8800     0.6700    -3.8410 hc         1 MOY       0.065700
     31 H62          0.7670     1.6490    -4.7760 hc         1 MOY       0.065700
     32 H63          1.2930     0.0850    -5.3870 hc         1 MOY       0.065700
     33 H19          1.0860    -2.4540    -1.6380 ha         1 MOY       0.143500
     34 H20          1.9520    -3.9360     0.1270 ha         1 MOY       0.136500
     35 H21          2.5850    -3.0020     2.3290 ha         1 MOY       0.134000
     36 H22          2.3780    -0.5750     2.7470 ha         1 MOY       0.136500
     37 H23          1.5420     0.9190     0.9730 ha         1 MOY       0.143500
     38 H25         -2.6770     1.2280    -3.0700 ha         1 MOY       0.151000
     39 H27         -4.8460     2.5590     0.3710 ha         1 MOY       0.133000
     40 H28         -3.8810     0.7220     1.6920 ha         1 MOY       0.134000
     41 H29         -2.3160    -0.8860     0.6510 ha         1 MOY       0.134000
     42 C5          -1.1950    -0.0980    -6.0460 c3         1 MOY       0.085300
@<TRIPOS>BOND
     1     1     6 2   
     2     2    11 2   
     3     3    20 1   
     4     3    24 1   
     5     4     6 1   
     6     4     9 1   
     7     4    25 1   
     8     5     6 1   
     9     5     7 1   
    10     5    42 1   
    11     7     8 2   
    12     7    10 1   
    13     8     9 1   
    14     8    11 1   
    15     9    18 1   
    16     9    26 1   
    17    10    30 1   
    18    10    31 1   
    19    10    32 1   
    20    11    12 1   
    21    12    13 ar  
    22    12    17 ar  
    23    13    14 ar  
    24    13    33 1   
    25    14    15 ar  
    26    14    34 1   
    27    15    16 ar  
    28    15    35 1   
    29    16    17 ar  
    30    16    36 1   
    31    17    37 1   
    32    18    19 ar  
    33    18    23 ar  
    34    19    20 ar  
    35    19    38 1   
    36    20    21 ar  
    37    21    22 ar  
    38    21    39 1   
    39    22    23 ar  
    40    22    40 1   
    41    23    41 1   
    42    27    42 1   
    43    28    42 1   
    44    29    42 1   
@<TRIPOS>SUBSTRUCTURE
     1 MOY         1 TEMP              0 ****  ****    0 ROOT
