@<TRIPOS>MOLECULE
MOY
   42    44     1     0     0
SMALL
No Charge or Current Charge


@<TRIPOS>ATOM
      1 S           -3.0480    -2.4030    -5.2610 s          1 MOY      -0.635400
      2 O3           1.0220     1.5160    -1.4010 o          1 MOY      -0.515100
      3 O4          -4.5510     3.0080    -2.2960 oh         1 MOY      -0.531100
      4 N1          -2.1590    -1.6770    -2.8960 ns         1 MOY      -0.426900
      5 N2          -1.0880    -0.5980    -4.6310 n          1 MOY      -0.275000
      6 C1          -2.0450    -1.5270    -4.2480 cs         1 MOY       0.462400
      7 C2          -0.1110    -0.0580    -3.7490 c2         1 MOY       0.114400
      8 C3          -0.3030    -0.1590    -2.4130 ce         1 MOY      -0.299400
      9 C4          -1.5200    -0.8810    -1.8520 c6         1 MOY       0.211200
     10 C6           1.1630     0.5510    -4.3310 c3         1 MOY      -0.070900
     11 C17          0.6630     0.3440    -1.3910 c          1 MOY       0.611900
     12 C18          1.2880    -0.6370    -0.4250 ca         1 MOY      -0.172600
     13 C19          1.3460    -2.0200    -0.7190 ca         1 MOY      -0.068500
     14 C20          1.9390    -2.9160     0.1880 ca         1 MOY      -0.122000
     15 C21          2.4870    -2.4440     1.3910 ca         1 MOY      -0.086000
     16 C22          2.4490    -1.0720     1.6850 ca         1 MOY      -0.122000
     17 C23          1.8580    -0.1720     0.7810 ca         1 MOY      -0.068500
     18 C24         -2.5320     0.1050    -1.2630 ca         1 MOY      -0.085300
     19 C25         -3.0940     1.1240    -2.0610 ca         1 MOY      -0.118000
     20 C26         -4.0150     2.0300    -1.5130 ca         1 MOY       0.141100
     21 C27         -4.3830     1.9290    -0.1620 ca         1 MOY      -0.194000
     22 C28         -3.8260     0.9200     0.6420 ca         1 MOY      -0.069000
     23 C29         -2.9040     0.0120     0.0930 ca         1 MOY      -0.135000
     24 HO4         -5.1660     3.5400    -1.7480 ho         1 MOY       0.466000
     25 HN1         -2.8540    -2.3490    -2.5960 hn         1 MOY       0.355500
     26 H4          -1.2120    -1.5770    -1.0590 h1         1 MOY       0.076700
     27 H51         -0.6680     0.8320    -6.1630 h1         1 MOY       0.063033
     28 H52         -2.1030    -0.1500    -6.4560 h1         1 MOY       0.063033
     29 H53         -0.4830    -0.8810    -6.6490 h1         1 MOY       0.063033
     30 H61          2.0250     0.4160    -3.6670 hc         1 MOY       0.065700
     31 H62          1.0400     1.6270    -4.5020 hc         1 MOY       0.065700
     32 H63          1.4480     0.0860    -5.2810 hc         1 MOY       0.065700
     33 H19          0.9460    -2.4070    -1.6540 ha         1 MOY       0.125500
     34 H20          1.9770    -3.9780    -0.0460 ha         1 MOY       0.118500
     35 H21          2.9470    -3.1390     2.0900 ha         1 MOY       0.116000
     36 H22          2.8790    -0.7040     2.6140 ha         1 MOY       0.118500
     37 H23          1.8360     0.8880     1.0260 ha         1 MOY       0.125500
     38 H25         -2.8160     1.2140    -3.1080 ha         1 MOY       0.133000
     39 H27         -5.0950     2.6280     0.2710 ha         1 MOY       0.115000
     40 H28         -4.1080     0.8410     1.6900 ha         1 MOY       0.116000
     41 H29         -2.4780    -0.7630     0.7270 ha         1 MOY       0.116000
     42 C5          -1.0820    -0.1770    -6.0570 c3         1 MOY       0.085300
@<TRIPOS>BOND
     1     1     6 2   
     2     2    11 2   
     3     3    20 1   
     4     3    24 1   
     5     4     6 1   
     6     4     9 1   
     7     4    25 1   
     8     5     6 1   
     9     5     7 1   
    10     5    42 1   
    11     7     8 2   
    12     7    10 1   
    13     8     9 1   
    14     8    11 1   
    15     9    18 1   
    16     9    26 1   
    17    10    30 1   
    18    10    31 1   
    19    10    32 1   
    20    11    12 1   
    21    12    13 ar  
    22    12    17 ar  
    23    13    14 ar  
    24    13    33 1   
    25    14    15 ar  
    26    14    34 1   
    27    15    16 ar  
    28    15    35 1   
    29    16    17 ar  
    30    16    36 1   
    31    17    37 1   
    32    18    19 ar  
    33    18    23 ar  
    34    19    20 ar  
    35    19    38 1   
    36    20    21 ar  
    37    21    22 ar  
    38    21    39 1   
    39    22    23 ar  
    40    22    40 1   
    41    23    41 1   
    42    27    42 1   
    43    28    42 1   
    44    29    42 1   
@<TRIPOS>SUBSTRUCTURE
     1 MOY         1 TEMP              0 ****  ****    0 ROOT
