@<TRIPOS>MOLECULE
MOZ
   14    13     1     0     0
SMALL
bcc


@<TRIPOS>ATOM
      1 N          118.2450    -3.4460    -3.8520 nv         1 MOZ      -0.816600
      2 OG         119.6840    -4.8210    -5.4650 oh         1 MOZ      -0.559100
      3 CA         117.6530    -4.6620    -4.3470 ce         1 MOZ      -0.170200
      4 CB         118.4680    -5.3370    -5.1890 c2         1 MOZ       0.081900
      5 C          116.2690    -5.0450    -3.8820 c          1 MOZ       0.923800
      6 O          115.7080    -6.0440    -4.3860 o          1 MOZ      -0.843300
      7 C6         118.2260    -6.6280    -5.8890 c3         1 MOZ      -0.037900
      8 OXT        115.7800    -4.3010    -3.0040 o          1 MOZ      -0.843300
      9 H          117.6620    -2.6510    -4.0900 hn         1 MOZ       0.345300
     10 H2         118.2710    -3.4570    -2.8400 hn         1 MOZ       0.345300
     11 H3         119.6940    -3.9930    -4.9350 ho         1 MOZ       0.441000
     12 H62        117.2620    -7.0410    -5.6210 hc         1 MOZ       0.044033
     13 H63        118.2630    -6.4860    -6.9720 hc         1 MOZ       0.044033
     14 H61        119.0100    -7.3460    -5.6380 hc         1 MOZ       0.044033
@<TRIPOS>BOND
     1     1     3 1   
     2     1     9 1   
     3     1    10 1   
     4     2     4 1   
     5     2    11 1   
     6     3     4 2   
     7     3     5 1   
     8     4     7 1   
     9     5     6 1   
    10     5     8 1   
    11     7    12 1   
    12     7    13 1   
    13     7    14 1   
@<TRIPOS>SUBSTRUCTURE
     1 MOZ         1 TEMP              0 ****  ****    0 ROOT
