@<TRIPOS>MOLECULE
MOZ
   14    13     1     0     0
SMALL
No Charge or Current Charge


@<TRIPOS>ATOM
      1 N          118.1310    -3.4420    -3.6460 nv         1 MOZ      -0.816600
      2 OG         119.7190    -4.8540    -5.4110 oh         1 MOZ      -0.559100
      3 CA         117.6870    -4.6510    -4.2710 ce         1 MOZ      -0.170200
      4 CB         118.4820    -5.3120    -5.1610 c2         1 MOZ       0.081900
      5 C          116.2630    -5.1370    -3.8720 c          1 MOZ       0.923800
      6 O          115.7960    -6.1660    -4.3430 o          1 MOZ      -0.843300
      7 C6         118.1680    -6.5760    -5.9490 c3         1 MOZ      -0.037900
      8 OXT        115.6240    -4.4620    -3.0700 o          1 MOZ      -0.843300
      9 H          118.7270    -2.7980    -4.1610 hn         1 MOZ       0.345300
     10 H2         117.4850    -3.0040    -2.9880 hn         1 MOZ       0.345300
     11 H3         119.8510    -4.1280    -4.7650 ho         1 MOZ       0.441000
     12 H62        117.9940    -7.4260    -5.2800 hc         1 MOZ       0.044033
     13 H63        117.2780    -6.4420    -6.5740 hc         1 MOZ       0.044033
     14 H61        118.9890    -6.8580    -6.6190 hc         1 MOZ       0.044033
@<TRIPOS>BOND
     1     1     3 1   
     2     1     9 1   
     3     1    10 1   
     4     2     4 1   
     5     2    11 1   
     6     3     4 2   
     7     3     5 1   
     8     4     7 1   
     9     5     6 1   
    10     5     8 1   
    11     7    12 1   
    12     7    13 1   
    13     7    14 1   
@<TRIPOS>SUBSTRUCTURE
     1 MOZ         1 TEMP              0 ****  ****    0 ROOT
