@<TRIPOS>MOLECULE
MP0
   55    55     1     0     0
SMALL
No Charge or Current Charge


@<TRIPOS>ATOM
      1 N5          -1.4750     0.9100     1.6770 n8         1 MP0      -1.005200
      2 O5           0.1760     2.0550     0.0170 oh         1 MP0      -0.666000
      3 N6           3.9000    -2.0630    -1.0690 ns         1 MP0      -0.512900
      4 O6           4.0040    -1.2880     1.0620 o          1 MP0      -0.604100
      5 C21         -1.3020     0.2400     0.3560 c3         1 MP0       0.131500
      6 C22         -2.5110     0.5810    -0.5580 c3         1 MP0      -0.107400
      7 C23         -3.9260     0.1270    -0.0650 c6         1 MP0      -0.061700
      8 C24         -4.0330    -1.4170     0.1140 c6         1 MP0      -0.071900
      9 C25         -5.0290     0.6300    -1.0400 c6         1 MP0      -0.071900
     10 C26         -5.4510    -1.8430     0.5720 c6         1 MP0      -0.073400
     11 C27         -6.4440     0.2050    -0.5760 c6         1 MP0      -0.073400
     12 C28         -6.5370    -1.3290    -0.4020 c6         1 MP0      -0.074400
     13 C29          0.0600     0.6670    -0.2850 c3         1 MP0       0.180300
     14 C30          1.2720    -0.1030     0.3130 c3         1 MP0      -0.089400
     15 C31          2.6040    -0.0370    -0.5070 c3         1 MP0      -0.126700
     16 C32          3.3160     1.3540    -0.6220 c3         1 MP0      -0.069400
     17 C33          4.1880     1.8790     0.5630 c3         1 MP0      -0.057700
     18 C34          4.8880     3.2000     0.1640 c3         1 MP0      -0.089100
     19 C35          3.4220     2.0630     1.8930 c3         1 MP0      -0.089100
     20 C36          3.5730    -1.1660    -0.0770 c          1 MP0       0.596100
     21 C37          4.7880    -3.2120    -0.8840 c3         1 MP0       0.097300
     22 HN5         -2.4410     0.7640     1.9920 hn         1 MP0       0.397000
     23 HO5         -0.4500     2.1080     0.7870 ho         1 MP0       0.449000
     24 H21         -1.2920    -0.8480     0.5090 h1         1 MP0       0.057700
     25 H22         -2.5210     1.6650    -0.7250 hc         1 MP0       0.051700
     26 H22A        -2.3250     0.1350    -1.5430 hc         1 MP0       0.051700
     27 H23         -4.0980     0.6050     0.9090 hc         1 MP0       0.037700
     28 H24         -3.7860    -1.9200    -0.8320 hc         1 MP0       0.038700
     29 H24A        -3.3040    -1.7690     0.8550 hc         1 MP0       0.038700
     30 H25         -4.9870     1.7250    -1.1220 hc         1 MP0       0.038700
     31 H25A        -4.8420     0.2370    -2.0500 hc         1 MP0       0.038700
     32 H26         -5.5040    -2.9380     0.6450 hc         1 MP0       0.038450
     33 H26A        -5.6450    -1.4530     1.5810 hc         1 MP0       0.038450
     34 H27         -6.6870     0.7020     0.3740 hc         1 MP0       0.038450
     35 H27A        -7.1920     0.5440    -1.3050 hc         1 MP0       0.038450
     36 H28         -6.4220    -1.8210    -1.3780 hc         1 MP0       0.038700
     37 H28A        -7.5330    -1.6030    -0.0290 hc         1 MP0       0.038700
     38 H29          0.0250     0.4910    -1.3700 h1         1 MP0       0.060700
     39 H30          1.4300     0.2010     1.3510 hc         1 MP0       0.067200
     40 H30A         0.9870    -1.1610     0.3640 hc         1 MP0       0.067200
     41 H31          2.3140    -0.2700    -1.5390 hc         1 MP0       0.043700
     42 H32          3.9780     1.2890    -1.4950 hc         1 MP0       0.047200
     43 H32A         2.5810     2.1200    -0.8890 hc         1 MP0       0.047200
     44 H33          4.9890     1.1520     0.7440 hc         1 MP0       0.047700
     45 H34          4.1520     3.9910    -0.0220 hc         1 MP0       0.033867
     46 H34A         5.5630     3.5390     0.9590 hc         1 MP0       0.033867
     47 H34B         5.4850     3.0660    -0.7460 hc         1 MP0       0.033867
     48 H35          2.5000     2.6370     1.7420 hc         1 MP0       0.033867
     49 H35A         3.1710     1.0950     2.3400 hc         1 MP0       0.033867
     50 H35B         4.0390     2.5980     2.6250 hc         1 MP0       0.033867
     51 H55          3.4990    -1.9020    -1.9860 hn         1 MP0       0.312500
     52 H37          5.7790    -2.8660    -0.5620 h1         1 MP0       0.038367
     53 H37A         4.3700    -3.8830    -0.1220 h1         1 MP0       0.038367
     54 H58          4.8860    -3.7570    -1.8320 h1         1 MP0       0.038367
     55 H2          -0.9220     0.4100     2.3840 hn         1 MP0       0.397000
@<TRIPOS>BOND
     1     1     5 1   
     2     1    22 1   
     3     1    55 1   
     4     2    13 1   
     5     2    23 1   
     6     3    20 1   
     7     3    21 1   
     8     3    51 1   
     9     4    20 2   
    10     5     6 1   
    11     5    13 1   
    12     5    24 1   
    13     6     7 1   
    14     6    25 1   
    15     6    26 1   
    16     7     8 1   
    17     7     9 1   
    18     7    27 1   
    19     8    10 1   
    20     8    28 1   
    21     8    29 1   
    22     9    11 1   
    23     9    30 1   
    24     9    31 1   
    25    10    12 1   
    26    10    32 1   
    27    10    33 1   
    28    11    12 1   
    29    11    34 1   
    30    11    35 1   
    31    12    36 1   
    32    12    37 1   
    33    13    14 1   
    34    13    38 1   
    35    14    15 1   
    36    14    39 1   
    37    14    40 1   
    38    15    16 1   
    39    15    20 1   
    40    15    41 1   
    41    16    17 1   
    42    16    42 1   
    43    16    43 1   
    44    17    18 1   
    45    17    19 1   
    46    17    44 1   
    47    18    45 1   
    48    18    46 1   
    49    18    47 1   
    50    19    48 1   
    51    19    49 1   
    52    19    50 1   
    53    21    52 1   
    54    21    53 1   
    55    21    54 1   
@<TRIPOS>SUBSTRUCTURE
     1 MP0         1 TEMP              0 ****  ****    0 ROOT
