@<TRIPOS>MOLECULE
MP0
   55    55     1     0     0
SMALL
abcg2


@<TRIPOS>ATOM
      1 N5          -1.4180     0.3360     1.7850 n8         1 MP0      -1.005200
      2 O5           0.1100     1.9070    -0.0550 oh         1 MP0      -0.666000
      3 N6           4.3380    -1.6980    -0.8330 ns         1 MP0      -0.512900
      4 O6           3.4750    -1.6030     1.2360 o          1 MP0      -0.604100
      5 C21         -1.3700     0.0270     0.3580 c3         1 MP0       0.131500
      6 C22         -2.5460     0.5910    -0.4450 c3         1 MP0      -0.107400
      7 C23         -3.9290     0.1410     0.0190 c6         1 MP0      -0.061700
      8 C24         -4.1100    -1.3760    -0.0490 c6         1 MP0      -0.071900
      9 C25         -5.0180     0.8370    -0.8000 c6         1 MP0      -0.071900
     10 C26         -5.5130    -1.8060     0.3710 c6         1 MP0      -0.073400
     11 C27         -6.4210     0.4140    -0.3780 c6         1 MP0      -0.073400
     12 C28         -6.5860    -1.1010    -0.4510 c6         1 MP0      -0.074400
     13 C29         -0.0290     0.5050    -0.2180 c3         1 MP0       0.180300
     14 C30          1.1470    -0.2740     0.3720 c3         1 MP0      -0.089400
     15 C31          2.4160    -0.2710    -0.4860 c3         1 MP0      -0.126700
     16 C32          3.0960     1.0940    -0.7410 c3         1 MP0      -0.069400
     17 C33          4.0540     1.6490     0.3200 c3         1 MP0      -0.057700
     18 C34          4.6800     2.9360    -0.2110 c3         1 MP0      -0.089100
     19 C35          3.4100     1.9080     1.6790 c3         1 MP0      -0.089100
     20 C36          3.4410    -1.2540     0.0620 c          1 MP0       0.596100
     21 C37          5.4250    -2.5770    -0.4720 c3         1 MP0       0.097300
     22 HN5         -1.7540     1.2820     1.9210 hn         1 MP0       0.397000
     23 HO5          0.2710     2.0720     0.8810 ho         1 MP0       0.449000
     24 H21         -1.3750    -1.0640     0.2620 h1         1 MP0       0.057700
     25 H22         -2.5010     1.6850    -0.4110 hc         1 MP0       0.051700
     26 H22A        -2.4200     0.3130    -1.4980 hc         1 MP0       0.051700
     27 H23         -4.0630     0.4510     1.0650 hc         1 MP0       0.037700
     28 H24         -3.9140    -1.7130    -1.0740 hc         1 MP0       0.038700
     29 H24A        -3.3740    -1.8800     0.5840 hc         1 MP0       0.038700
     30 H25         -4.9080     1.9220    -0.7110 hc         1 MP0       0.038700
     31 H25A        -4.8740     0.5990    -1.8620 hc         1 MP0       0.038700
     32 H26         -5.6150    -2.8910     0.2780 hc         1 MP0       0.038450
     33 H26A        -5.6570    -1.5730     1.4310 hc         1 MP0       0.038450
     34 H27         -6.6080     0.7500     0.6480 hc         1 MP0       0.038450
     35 H27A        -7.1680     0.9070    -1.0050 hc         1 MP0       0.038450
     36 H28         -6.5090    -1.4210    -1.4960 hc         1 MP0       0.038700
     37 H28A        -7.5810    -1.3930    -0.1080 hc         1 MP0       0.038700
     38 H29         -0.0580     0.3370    -1.3010 h1         1 MP0       0.060700
     39 H30          1.3390     0.0740     1.3880 hc         1 MP0       0.067200
     40 H30A         0.8280    -1.3150     0.4780 hc         1 MP0       0.067200
     41 H31          2.1170    -0.6400    -1.4750 hc         1 MP0       0.043700
     42 H32          3.6670     1.0090    -1.6700 hc         1 MP0       0.047200
     43 H32A         2.3200     1.8350    -0.9400 hc         1 MP0       0.047200
     44 H33          4.8640     0.9250     0.4640 hc         1 MP0       0.047700
     45 H34          3.9210     3.7110    -0.3460 hc         1 MP0       0.033867
     46 H34A         5.4300     3.3270     0.4790 hc         1 MP0       0.033867
     47 H34B         5.1660     2.7780    -1.1760 hc         1 MP0       0.033867
     48 H35          2.5510     2.5770     1.5870 hc         1 MP0       0.033867
     49 H35A         3.0790     0.9900     2.1610 hc         1 MP0       0.033867
     50 H35B         4.1240     2.3880     2.3520 hc         1 MP0       0.033867
     51 H55          4.2610    -1.4050    -1.7920 hn         1 MP0       0.312500
     52 H37          6.0540    -2.1390     0.3040 h1         1 MP0       0.038367
     53 H37A         5.0660    -3.5430    -0.1150 h1         1 MP0       0.038367
     54 H58          6.0380    -2.7450    -1.3530 h1         1 MP0       0.038367
     55 H2          -2.0910    -0.2590     2.2500 hn         1 MP0       0.397000
@<TRIPOS>BOND
     1     1     5 1   
     2     1    22 1   
     3     1    55 1   
     4     2    13 1   
     5     2    23 1   
     6     3    20 1   
     7     3    21 1   
     8     3    51 1   
     9     4    20 2   
    10     5     6 1   
    11     5    13 1   
    12     5    24 1   
    13     6     7 1   
    14     6    25 1   
    15     6    26 1   
    16     7     8 1   
    17     7     9 1   
    18     7    27 1   
    19     8    10 1   
    20     8    28 1   
    21     8    29 1   
    22     9    11 1   
    23     9    30 1   
    24     9    31 1   
    25    10    12 1   
    26    10    32 1   
    27    10    33 1   
    28    11    12 1   
    29    11    34 1   
    30    11    35 1   
    31    12    36 1   
    32    12    37 1   
    33    13    14 1   
    34    13    38 1   
    35    14    15 1   
    36    14    39 1   
    37    14    40 1   
    38    15    16 1   
    39    15    20 1   
    40    15    41 1   
    41    16    17 1   
    42    16    42 1   
    43    16    43 1   
    44    17    18 1   
    45    17    19 1   
    46    17    44 1   
    47    18    45 1   
    48    18    46 1   
    49    18    47 1   
    50    19    48 1   
    51    19    49 1   
    52    19    50 1   
    53    21    52 1   
    54    21    53 1   
    55    21    54 1   
@<TRIPOS>SUBSTRUCTURE
     1 MP0         1 TEMP              0 ****  ****    0 ROOT
