@<TRIPOS>MOLECULE
MP2
   36    36     1     0     0
SMALL
bcc


@<TRIPOS>ATOM
      1 O20         -0.6900     1.2170    -1.6290 o          1 MP2      -0.596000
      2 C19         -0.8810     0.5640    -0.6230 c          1 MP2       0.759100
      3 N18          0.0590     0.2380     0.2840 ns         1 MP2      -0.548900
      4 C15          1.4220     0.6840     0.1940 c3         1 MP2       0.048700
      5 C17          1.7110     1.8670     1.1230 c3         1 MP2       0.016700
      6 S21          0.6720     3.2890     0.6540 sh         1 MP2      -0.397900
      7 C13          2.3470    -0.4680     0.5930 c          1 MP2       0.640100
      8 O14          2.0320    -1.2410     1.4890 o          1 MP2      -0.655100
      9 N            3.4960    -0.5150    -0.0720 ns         1 MP2      -0.516900
     10 CA           4.5510    -1.4620     0.1900 c3         1 MP2      -0.062000
     11 C            5.7490    -1.2150    -0.7500 c          1 MP2       0.923600
     12 O1           6.7170    -1.9760    -0.5860 o          1 MP2      -0.829800
     13 O2           5.6390    -0.2890    -1.5770 o          1 MP2      -0.829800
     14 O22         -2.0670     0.0580    -0.2740 os         1 MP2      -0.435900
     15 C23         -3.1710     0.3340    -1.1450 c3         1 MP2       0.207700
     16 C24         -4.3830    -0.2940    -0.5260 ca         1 MP2      -0.090300
     17 C29         -4.8520    -1.5240    -0.9760 ca         1 MP2      -0.102500
     18 C28         -5.9640    -2.1140    -0.3880 ca         1 MP2      -0.137000
     19 C27         -6.6140    -1.4770     0.6600 ca         1 MP2      -0.124000
     20 C26         -6.1510    -0.2480     1.1170 ca         1 MP2      -0.137000
     21 C25         -5.0420     0.3380     0.5250 ca         1 MP2      -0.102500
     22 H18         -0.2040    -0.2940     1.1000 hn         1 MP2       0.343500
     23 H15          1.6220     0.9810    -0.8370 h1         1 MP2       0.103700
     24 H171         1.5010     1.5870     2.1550 h1         1 MP2       0.073200
     25 H172         2.7620     2.1440     1.0450 h1         1 MP2       0.073200
     26 H21          1.1020     4.1120     1.6170 hs         1 MP2       0.191800
     27 HN           3.6880     0.1320    -0.8250 hn         1 MP2       0.347500
     28 HA1          4.1940    -2.4870     0.0500 h1         1 MP2       0.038700
     29 HA2          4.8880    -1.3890     1.2280 h1         1 MP2       0.038700
     30 H231        -3.3040     1.4140    -1.2470 h1         1 MP2       0.054200
     31 H232        -2.9830    -0.0800    -2.1370 h1         1 MP2       0.054200
     32 H29         -4.3460    -2.0260    -1.7920 ha         1 MP2       0.135000
     33 H28         -6.3210    -3.0690    -0.7490 ha         1 MP2       0.127500
     34 H27         -7.4810    -1.9340     1.1190 ha         1 MP2       0.124000
     35 H26         -6.6580     0.2550     1.9300 ha         1 MP2       0.127500
     36 H25         -4.6890     1.3000     0.8800 ha         1 MP2       0.135000
@<TRIPOS>BOND
     1     1     2 2   
     2     2     3 1   
     3     2    14 1   
     4     3     4 1   
     5     3    22 1   
     6     4     5 1   
     7     4     7 1   
     8     4    23 1   
     9     5     6 1   
    10     5    24 1   
    11     5    25 1   
    12     6    26 1   
    13     7     8 2   
    14     7     9 1   
    15     9    10 1   
    16     9    27 1   
    17    10    11 1   
    18    10    28 1   
    19    10    29 1   
    20    11    12 1   
    21    11    13 1   
    22    14    15 1   
    23    15    16 1   
    24    15    30 1   
    25    15    31 1   
    26    16    17 ar  
    27    16    21 ar  
    28    17    18 ar  
    29    17    32 1   
    30    18    19 ar  
    31    18    33 1   
    32    19    20 ar  
    33    19    34 1   
    34    20    21 ar  
    35    20    35 1   
    36    21    36 1   
@<TRIPOS>SUBSTRUCTURE
     1 MP2         1 TEMP              0 ****  ****    0 ROOT
