@<TRIPOS>MOLECULE
MP2
   36    36     1     0     0
SMALL
No Charge or Current Charge


@<TRIPOS>ATOM
      1 O20         -0.7900     1.3040    -1.7410 o          1 MP2      -0.547000
      2 C19         -0.9640     0.6240    -0.7410 c          1 MP2       0.643100
      3 N18          0.0120     0.2420     0.1340 ns         1 MP2      -0.481900
      4 C15          1.4420     0.6210     0.0420 c3         1 MP2       0.048700
      5 C17          1.7780     1.8080     0.9810 c3         1 MP2       0.064600
      6 S21          0.7480     3.3340     0.7240 sh         1 MP2      -0.445800
      7 C13          2.3490    -0.6000     0.3650 c          1 MP2       0.573100
      8 O14          1.9370    -1.6150     0.9180 o          1 MP2      -0.655100
      9 N            3.6690    -0.4720    -0.0170 ns         1 MP2      -0.449900
     10 CA           4.7190    -1.4960     0.2000 c3         1 MP2      -0.062000
     11 C            6.0690    -1.1110    -0.4670 c          1 MP2       0.713000
     12 O1           6.8530    -2.0110    -0.7330 o          1 MP2      -0.724500
     13 O2           6.2780     0.0650    -0.7320 o          1 MP2      -0.724500
     14 O22         -2.1520     0.1100    -0.3240 os         1 MP2      -0.459100
     15 C23         -3.3140     0.4010    -1.1170 c3         1 MP2       0.230900
     16 C24         -4.5190    -0.2660    -0.4660 ca         1 MP2      -0.090300
     17 C29         -4.8920    -1.5750    -0.8320 ca         1 MP2      -0.084500
     18 C28         -6.0060    -2.1880    -0.2330 ca         1 MP2      -0.119000
     19 C27         -6.7530    -1.4980     0.7370 ca         1 MP2      -0.106000
     20 C26         -6.3850    -0.1940     1.1080 ca         1 MP2      -0.119000
     21 C25         -5.2710     0.4210     0.5090 ca         1 MP2      -0.084500
     22 H18         -0.2860    -0.3630     0.8900 hn         1 MP2       0.343500
     23 H15          1.6640     0.9180    -0.9910 h1         1 MP2       0.103700
     24 H171         1.6460     1.4850     2.0220 h1         1 MP2       0.073200
     25 H172         2.8320     2.0870     0.8530 h1         1 MP2       0.073200
     26 H21          1.3280     4.0730     1.7020 hs         1 MP2       0.191800
     27 HN           3.9430     0.3930    -0.4750 hn         1 MP2       0.347500
     28 HA1          4.3800    -2.4520    -0.2180 h1         1 MP2       0.038700
     29 HA2          4.8870    -1.6170     1.2770 h1         1 MP2       0.038700
     30 H231        -3.4830     1.4840    -1.1770 h1         1 MP2       0.054200
     31 H232        -3.1930     0.0210    -2.1400 h1         1 MP2       0.054200
     32 H29         -4.3180    -2.1170    -1.5810 ha         1 MP2       0.117000
     33 H28         -6.2890    -3.1990    -0.5190 ha         1 MP2       0.109500
     34 H27         -7.6150    -1.9740     1.2010 ha         1 MP2       0.106000
     35 H26         -6.9610     0.3410     1.8590 ha         1 MP2       0.109500
     36 H25         -4.9910     1.4300     0.8030 ha         1 MP2       0.117000
@<TRIPOS>BOND
     1     1     2 2   
     2     2     3 1   
     3     2    14 1   
     4     3     4 1   
     5     3    22 1   
     6     4     5 1   
     7     4     7 1   
     8     4    23 1   
     9     5     6 1   
    10     5    24 1   
    11     5    25 1   
    12     6    26 1   
    13     7     8 2   
    14     7     9 1   
    15     9    10 1   
    16     9    27 1   
    17    10    11 1   
    18    10    28 1   
    19    10    29 1   
    20    11    12 1   
    21    11    13 1   
    22    14    15 1   
    23    15    16 1   
    24    15    30 1   
    25    15    31 1   
    26    16    17 ar  
    27    16    21 ar  
    28    17    18 ar  
    29    17    32 1   
    30    18    19 ar  
    31    18    33 1   
    32    19    20 ar  
    33    19    34 1   
    34    20    21 ar  
    35    20    35 1   
    36    21    36 1   
@<TRIPOS>SUBSTRUCTURE
     1 MP2         1 TEMP              0 ****  ****    0 ROOT
