@<TRIPOS>MOLECULE
MP4
   24    24     1     0     0
SMALL
No Charge or Current Charge


@<TRIPOS>ATOM
      1 C4         -17.1250   -25.2530    -6.7910 ca         1 MP4      -0.173300
      2 C5         -16.8990   -24.9110    -8.1420 ca         1 MP4       0.150100
      3 C6         -17.8820   -24.2370    -8.8810 ca         1 MP4      -0.241500
      4 N          -20.7220   -24.0240   -10.2150 n8         1 MP4      -0.888800
      5 C3         -18.3550   -24.8910    -6.1980 ca         1 MP4       0.150100
      6 O3         -18.6130   -25.1810    -4.8910 oh         1 MP4      -0.517100
      7 C2         -19.3340   -24.2170    -6.9430 ca         1 MP4      -0.241500
      8 C1         -19.1090   -23.8830    -8.2910 ca         1 MP4       0.066700
      9 CA         -20.1860   -23.1500    -9.0970 c3         1 MP4       0.032800
     10 C          -19.6680   -21.6980    -9.4790 c          1 MP4       0.913600
     11 O          -19.8610   -20.7780    -8.6900 o          1 MP4      -0.823300
     12 CH3        -16.0500   -25.9870    -5.9780 c3         1 MP4      -0.007800
     13 O10        -15.7200   -25.2210    -8.7530 oh         1 MP4      -0.517100
     14 H6         -17.6990   -23.9820    -9.9220 ha         1 MP4       0.144500
     15 HO3        -19.5070   -24.8490    -4.6720 ho         1 MP4       0.417500
     16 H3         -20.2790   -23.9460    -6.4770 ha         1 MP4       0.144500
     17 HA         -21.0380   -22.9750    -8.4260 h1         1 MP4       0.049700
     18 OXT        -19.1370   -21.5250   -10.5730 o          1 MP4      -0.823300
     19 HH3        -15.3820   -25.2720    -5.4830 hc         1 MP4       0.027033
     20 HH3A       -16.4860   -26.6280    -5.2030 hc         1 MP4       0.027033
     21 HH3B       -15.4330   -26.6400    -6.6050 hc         1 MP4       0.027033
     22 HO10       -15.7580   -24.9000    -9.6770 ho         1 MP4       0.417500
     23 H2         -21.4390   -23.5050   -10.7320 hn         1 MP4       0.332800
     24 H          -19.9750   -24.1640   -10.9040 hn         1 MP4       0.332800
@<TRIPOS>BOND
     1     1     2 ar  
     2     1     5 ar  
     3     1    12 1   
     4     2     3 ar  
     5     2    13 1   
     6     3     8 ar  
     7     3    14 1   
     8     4     9 1   
     9     4    23 1   
    10     4    24 1   
    11     5     6 1   
    12     5     7 ar  
    13     6    15 1   
    14     7     8 ar  
    15     7    16 1   
    16     8     9 1   
    17     9    10 1   
    18     9    17 1   
    19    10    11 1   
    20    10    18 1   
    21    12    19 1   
    22    12    20 1   
    23    12    21 1   
    24    13    22 1   
@<TRIPOS>SUBSTRUCTURE
     1 MP4         1 TEMP              0 ****  ****    0 ROOT
