@<TRIPOS>MOLECULE
MP4
   24    24     1     0     0
SMALL
bcc


@<TRIPOS>ATOM
      1 C4         -17.1340   -25.2360    -6.8090 ca         1 MP4      -0.173300
      2 C5         -17.0590   -25.2250    -8.2010 ca         1 MP4       0.150100
      3 C6         -18.0400   -24.6140    -8.9820 ca         1 MP4      -0.241500
      4 N          -20.1670   -23.7550   -10.5970 n8         1 MP4      -0.888800
      5 C3         -18.2390   -24.6040    -6.2310 ca         1 MP4       0.150100
      6 O3         -18.3090   -24.6360    -4.8810 oh         1 MP4      -0.517100
      7 C2         -19.2160   -23.9810    -6.9980 ca         1 MP4      -0.241500
      8 C1         -19.1240   -23.9860    -8.3870 ca         1 MP4       0.066700
      9 CA         -20.1820   -23.2930    -9.2180 c3         1 MP4       0.032800
     10 C          -19.9710   -21.7530    -9.0680 c          1 MP4       0.913600
     11 O          -20.4990   -21.2120    -8.0790 o          1 MP4      -0.823300
     12 CH3        -16.1010   -25.9000    -5.9430 c3         1 MP4      -0.007800
     13 O10        -15.9990   -25.8410    -8.7750 oh         1 MP4      -0.517100
     14 H6         -17.9600   -24.6510   -10.0630 ha         1 MP4       0.144500
     15 HO3        -19.1040   -24.1830    -4.5790 ho         1 MP4       0.417500
     16 H3         -20.0560   -23.4960    -6.5130 ha         1 MP4       0.144500
     17 HA         -21.1550   -23.5450    -8.7870 h1         1 MP4       0.049700
     18 OXT        -19.2720   -21.2120    -9.9460 o          1 MP4      -0.823300
     19 HH3        -15.6810   -25.2050    -5.2140 hc         1 MP4       0.027033
     20 HH3A       -16.5250   -26.7320    -5.3770 hc         1 MP4       0.027033
     21 HH3B       -15.2740   -26.2950    -6.5270 hc         1 MP4       0.027033
     22 HO10       -16.0500   -25.7600    -9.7340 ho         1 MP4       0.417500
     23 H2         -21.0540   -23.5120   -11.0220 hn         1 MP4       0.332800
     24 H          -19.4850   -23.1900   -11.0920 hn         1 MP4       0.332800
@<TRIPOS>BOND
     1     1     2 ar  
     2     1     5 ar  
     3     1    12 1   
     4     2     3 ar  
     5     2    13 1   
     6     3     8 ar  
     7     3    14 1   
     8     4     9 1   
     9     4    23 1   
    10     4    24 1   
    11     5     6 1   
    12     5     7 ar  
    13     6    15 1   
    14     7     8 ar  
    15     7    16 1   
    16     8     9 1   
    17     9    10 1   
    18     9    17 1   
    19    10    11 1   
    20    10    18 1   
    21    12    19 1   
    22    12    20 1   
    23    12    21 1   
    24    13    22 1   
@<TRIPOS>SUBSTRUCTURE
     1 MP4         1 TEMP              0 ****  ****    0 ROOT
