@<TRIPOS>MOLECULE
MP6
   61    65     1     0     0
SMALL
No Charge or Current Charge


@<TRIPOS>ATOM
      1 C           -0.3510    -1.2320     0.2690 ca         1 MP6       0.686900
      2 N           -1.3580    -0.3880     0.4450 nb         1 MP6      -0.815000
      3 O            1.3430     3.5840     0.3320 o          1 MP6      -0.525100
      4 C1           0.9880    -0.8280     0.1200 ca         1 MP6      -0.155000
      5 C2           1.2820     0.5550     0.1630 ca         1 MP6       0.078000
      6 C3           2.6390     0.9490     0.0100 ca         1 MP6      -0.112000
      7 C4           3.6760     0.0140    -0.1780 ca         1 MP6       0.050000
      8 C5           3.3520    -1.3530    -0.2150 ca         1 MP6      -0.125000
      9 C6           2.0250    -1.7710    -0.0680 ca         1 MP6      -0.081000
     10 C7           0.1890     1.4610     0.3560 ca         1 MP6      -0.284600
     11 C8          -1.1040     0.9270     0.4920 ca         1 MP6       0.508800
     12 C9          -2.2630     1.7920     0.6900 cc         1 MP6      -0.351400
     13 C10         -2.0350     3.1920     0.7390 cc         1 MP6       0.537500
     14 N11         -0.8490     3.7310     0.6190 nd         1 MP6      -0.641100
     15 C12          0.2980     2.9650     0.4290 c          1 MP6       0.716100
     16 N13         -0.7420    -2.5590     0.2310 nu         1 MP6      -0.922100
     17 C14         -2.0560    -3.1440     0.5590 c3         1 MP6       0.244500
     18 C15         -2.1770    -3.2340     2.1020 c3         1 MP6      -0.110100
     19 C16         -2.2770    -4.5020    -0.2150 c3         1 MP6      -0.056000
     20 C17         -1.2420    -5.5920     0.1920 c3         1 MP6      -0.084767
     21 C18         -3.7050    -5.0520     0.0660 c3         1 MP6      -0.084767
     22 C19         -2.1690    -4.2570    -1.7500 c3         1 MP6      -0.084767
     23 C20         -3.5480     1.3200     0.8140 c2         1 MP6      -0.077200
     24 C21         -4.8500     2.0810     0.6260 c3         1 MP6      -0.035200
     25 C22         -5.1240     2.3530    -0.8510 cx         1 MP6      -0.128700
     26 C23         -6.1930     3.3370    -1.2660 cx         1 MP6      -0.127900
     27 C24         -4.7370     3.6610    -1.5040 cx         1 MP6      -0.127900
     28 C25          5.0650     0.4780    -0.3300 cc         1 MP6      -0.166000
     29 C26          5.5930     1.7820    -0.3230 cc         1 MP6       0.265900
     30 N27          6.9000     1.8290    -0.4890 nd         1 MP6      -0.521800
     31 N28          7.2380     0.4790    -0.6110 na         1 MP6      -0.002200
     32 C29          6.1230    -0.3660    -0.5160 cd         1 MP6      -0.155000
     33 H3           2.9300     1.9860     0.0330 ha         1 MP6       0.155000
     34 H5           4.1190    -2.1070    -0.3570 ha         1 MP6       0.109000
     35 H6           1.8230    -2.8380    -0.1020 ha         1 MP6       0.100000
     36 H10         -2.8220     3.9170     0.8890 h4         1 MP6       0.021800
     37 HN13         0.0120    -3.2070     0.0530 hn         1 MP6       0.494000
     38 H14         -2.8480    -2.4650     0.2100 h1         1 MP6       0.079700
     39 H15         -3.1650    -3.5980     2.4040 hc         1 MP6       0.043700
     40 H15A        -1.4150    -3.8960     2.5270 hc         1 MP6       0.043700
     41 H15B        -2.0490    -2.2440     2.5540 hc         1 MP6       0.043700
     42 H17         -1.3240    -5.8470     1.2550 hc         1 MP6       0.036144
     43 H17A        -1.4070    -6.5140    -0.3780 hc         1 MP6       0.036144
     44 H17B        -0.2130    -5.2660    -0.0020 hc         1 MP6       0.036144
     45 H18         -4.4680    -4.2940    -0.1520 hc         1 MP6       0.036144
     46 H18A        -3.9170    -5.9300    -0.5560 hc         1 MP6       0.036144
     47 H18B        -3.8200    -5.3620     1.1110 hc         1 MP6       0.036144
     48 H19         -1.1590    -3.9440    -2.0400 hc         1 MP6       0.036144
     49 H19A        -2.4010    -5.1710    -2.3120 hc         1 MP6       0.036144
     50 H19B        -2.8700    -3.4780    -2.0720 hc         1 MP6       0.036144
     51 H20         -3.7110     0.2390     0.8150 ha         1 MP6       0.200000
     52 H21         -5.6760     1.4850     1.0330 hc         1 MP6       0.059200
     53 H21A        -4.8520     3.0130     1.2040 hc         1 MP6       0.059200
     54 H22         -5.0380     1.4550    -1.4600 hc         1 MP6       0.080700
     55 H23         -6.8050     3.0860    -2.1300 hc         1 MP6       0.073700
     56 H23A        -6.7130     3.8890    -0.4860 hc         1 MP6       0.073700
     57 H24         -4.2950     4.4420    -0.8920 hc         1 MP6       0.073700
     58 H24A        -4.3700     3.6250    -2.5270 hc         1 MP6       0.073700
     59 H26          5.0550     2.7140    -0.1990 h4         1 MP6       0.051100
     60 HN28         8.2040     0.1840    -0.7530 hn         1 MP6       0.372000
     61 H29          6.1950    -1.4450    -0.5880 h4         1 MP6       0.152000
@<TRIPOS>BOND
     1     1     2 ar  
     2     1     4 ar  
     3     1    16 1   
     4     2    11 ar  
     5     3    15 2   
     6     4     5 ar  
     7     4     9 ar  
     8     5     6 ar  
     9     5    10 ar  
    10     6     7 ar  
    11     6    33 1   
    12     7     8 ar  
    13     7    28 1   
    14     8     9 ar  
    15     8    34 1   
    16     9    35 1   
    17    10    11 ar  
    18    10    15 1   
    19    11    12 1   
    20    12    13 1   
    21    12    23 2   
    22    13    14 2   
    23    13    36 1   
    24    14    15 1   
    25    16    17 1   
    26    16    37 1   
    27    17    18 1   
    28    17    19 1   
    29    17    38 1   
    30    18    39 1   
    31    18    40 1   
    32    18    41 1   
    33    19    20 1   
    34    19    21 1   
    35    19    22 1   
    36    20    42 1   
    37    20    43 1   
    38    20    44 1   
    39    21    45 1   
    40    21    46 1   
    41    21    47 1   
    42    22    48 1   
    43    22    49 1   
    44    22    50 1   
    45    23    24 1   
    46    23    51 1   
    47    24    25 1   
    48    24    52 1   
    49    24    53 1   
    50    25    26 1   
    51    25    27 1   
    52    25    54 1   
    53    26    27 1   
    54    26    55 1   
    55    26    56 1   
    56    27    57 1   
    57    27    58 1   
    58    28    29 1   
    59    28    32 2   
    60    29    30 2   
    61    29    59 1   
    62    30    31 1   
    63    31    32 1   
    64    31    60 1   
    65    32    61 1   
@<TRIPOS>SUBSTRUCTURE
     1 MP6         1 TEMP              0 ****  ****    0 ROOT
