@<TRIPOS>MOLECULE
MP6
   61    65     1     0     0
SMALL
bcc


@<TRIPOS>ATOM
      1 C           -0.3270    -1.2120     0.3210 ca         1 MP6       0.752200
      2 N           -1.2800    -0.3140     0.4350 nb         1 MP6      -0.815000
      3 O            1.6030     3.4830     0.4560 o          1 MP6      -0.525100
      4 C1           1.0620    -0.8300     0.1800 ca         1 MP6      -0.220300
      5 C2           1.3850     0.5460     0.2090 ca         1 MP6       0.078000
      6 C3           2.7390     0.9040     0.0640 ca         1 MP6      -0.130000
      7 C4           3.7390    -0.0350    -0.1070 ca         1 MP6       0.050000
      8 C5           3.3920    -1.3970    -0.1380 ca         1 MP6      -0.143000
      9 C6           2.0840    -1.7770     0.0010 ca         1 MP6      -0.099000
     10 C7           0.3090     1.4980     0.3640 ca         1 MP6      -0.349900
     11 C8          -0.9780     0.9870     0.4490 ca         1 MP6       0.574100
     12 C9          -2.1090     1.9090     0.5740 cc         1 MP6      -0.351400
     13 C10         -1.7840     3.3140     0.5760 cc         1 MP6       0.537500
     14 N11         -0.6040     3.8000     0.5150 nd         1 MP6      -0.641100
     15 C12          0.5070     2.9450     0.4440 c          1 MP6       0.716100
     16 N13         -0.6830    -2.5020     0.3200 nu         1 MP6      -0.866900
     17 C14         -2.0520    -2.9740     0.4630 c3         1 MP6       0.244500
     18 C15         -2.4110    -3.0830     1.9420 c3         1 MP6      -0.110100
     19 C16         -2.2610    -4.2690    -0.3570 c3         1 MP6      -0.056000
     20 C17         -1.4500    -5.4420     0.1970 c3         1 MP6      -0.084767
     21 C18         -3.7470    -4.6370    -0.3240 c3         1 MP6      -0.084767
     22 C19         -1.8660    -4.0120    -1.8140 c3         1 MP6      -0.084767
     23 C20         -3.3780     1.4580     0.6770 c2         1 MP6      -0.027200
     24 C21         -4.6370     2.2400     0.7810 c3         1 MP6      -0.035200
     25 C22         -5.5310     1.9340    -0.4040 cx         1 MP6      -0.128700
     26 C23         -6.4980     2.9720    -0.8800 cx         1 MP6      -0.127900
     27 C24         -5.2910     2.6340    -1.7040 cx         1 MP6      -0.127900
     28 C25          5.1290     0.3820    -0.2600 cc         1 MP6      -0.231300
     29 C26          5.6560     1.6930    -0.2960 cc         1 MP6       0.331200
     30 N27          6.9640     1.6880    -0.4470 nd         1 MP6      -0.521800
     31 N28          7.2960     0.4030    -0.5100 na         1 MP6      -0.002600
     32 C29          6.2470    -0.4200    -0.4040 cd         1 MP6      -0.122300
     33 H3           2.9980     1.9490     0.0860 ha         1 MP6       0.173000
     34 H5           4.1490    -2.1580    -0.2750 ha         1 MP6       0.127000
     35 H6           1.8660    -2.8350    -0.0410 ha         1 MP6       0.118000
     36 H10         -2.5980     4.0320     0.6310 h4         1 MP6       0.021800
     37 HN13         0.0410    -3.1980     0.3620 hn         1 MP6       0.438800
     38 H14         -2.6880    -2.2080     0.0150 h1         1 MP6       0.079700
     39 H15         -3.4480    -3.3840     2.0850 hc         1 MP6       0.043700
     40 H15A        -1.7740    -3.8020     2.4600 hc         1 MP6       0.043700
     41 H15B        -2.2810    -2.1140     2.4240 hc         1 MP6       0.043700
     42 H17         -1.7560    -5.7060     1.2110 hc         1 MP6       0.036144
     43 H17A        -1.5950    -6.3250    -0.4280 hc         1 MP6       0.036144
     44 H17B        -0.3740    -5.2500     0.2160 hc         1 MP6       0.036144
     45 H18         -4.3710    -3.8060    -0.6610 hc         1 MP6       0.036144
     46 H18A        -3.9400    -5.4800    -0.9900 hc         1 MP6       0.036144
     47 H18B        -4.0830    -4.9250     0.6730 hc         1 MP6       0.036144
     48 H19         -0.8070    -3.7760    -1.9270 hc         1 MP6       0.036144
     49 H19A        -2.0720    -4.8940    -2.4220 hc         1 MP6       0.036144
     50 H19B        -2.4360    -3.1800    -2.2330 hc         1 MP6       0.036144
     51 H20         -3.5060     0.3800     0.6630 ha         1 MP6       0.150000
     52 H21         -5.1450     1.9330     1.7010 hc         1 MP6       0.059200
     53 H21A        -4.4730     3.3150     0.8560 hc         1 MP6       0.059200
     54 H22         -5.8590     0.9020    -0.4660 hc         1 MP6       0.080700
     55 H23         -7.4690     2.6460    -1.2300 hc         1 MP6       0.073700
     56 H23A        -6.5080     3.9250    -0.3660 hc         1 MP6       0.073700
     57 H24         -4.4870     3.3600    -1.7460 hc         1 MP6       0.073700
     58 H24A        -5.4330     2.0760    -2.6210 hc         1 MP6       0.073700
     59 H26          5.1270     2.6310    -0.2170 h4         1 MP6       0.051100
     60 HN28         8.2610     0.1390    -0.6250 hn         1 MP6       0.321700
     61 H29          6.3670    -1.4900    -0.4370 h4         1 MP6       0.170000
@<TRIPOS>BOND
     1     1     2 ar  
     2     1     4 ar  
     3     1    16 1   
     4     2    11 ar  
     5     3    15 2   
     6     4     5 ar  
     7     4     9 ar  
     8     5     6 ar  
     9     5    10 ar  
    10     6     7 ar  
    11     6    33 1   
    12     7     8 ar  
    13     7    28 1   
    14     8     9 ar  
    15     8    34 1   
    16     9    35 1   
    17    10    11 ar  
    18    10    15 1   
    19    11    12 1   
    20    12    13 1   
    21    12    23 2   
    22    13    14 2   
    23    13    36 1   
    24    14    15 1   
    25    16    17 1   
    26    16    37 1   
    27    17    18 1   
    28    17    19 1   
    29    17    38 1   
    30    18    39 1   
    31    18    40 1   
    32    18    41 1   
    33    19    20 1   
    34    19    21 1   
    35    19    22 1   
    36    20    42 1   
    37    20    43 1   
    38    20    44 1   
    39    21    45 1   
    40    21    46 1   
    41    21    47 1   
    42    22    48 1   
    43    22    49 1   
    44    22    50 1   
    45    23    24 1   
    46    23    51 1   
    47    24    25 1   
    48    24    52 1   
    49    24    53 1   
    50    25    26 1   
    51    25    27 1   
    52    25    54 1   
    53    26    27 1   
    54    26    55 1   
    55    26    56 1   
    56    27    57 1   
    57    27    58 1   
    58    28    29 1   
    59    28    32 2   
    60    29    30 2   
    61    29    59 1   
    62    30    31 1   
    63    31    32 1   
    64    31    60 1   
    65    32    61 1   
@<TRIPOS>SUBSTRUCTURE
     1 MP6         1 TEMP              0 ****  ****    0 ROOT
