@<TRIPOS>MOLECULE
MP7
   60    64     1     0     0
SMALL
No Charge or Current Charge


@<TRIPOS>ATOM
      1 C           -1.5890    -1.1080    -1.8800 cc         1 MP7      -0.298400
      2 F           -8.2440     0.8030     0.5110 f          1 MP7      -0.159000
      3 N           -3.0600     0.8060    -1.4120 n          1 MP7      -0.262000
      4 O           -1.5210     0.1520     0.1600 o          1 MP7      -0.576000
      5 C1          -2.1880    -1.2570    -3.1250 cd         1 MP7      -0.021000
      6 C2          -3.2380    -0.3640    -3.5190 cd         1 MP7      -0.303000
      7 C3          -3.6440     0.6300    -2.6630 cc         1 MP7      -0.019400
      8 C4          -2.0180    -0.0290    -0.9450 c          1 MP7       0.563200
      9 C5          -3.5490     1.8870    -0.5220 c3         1 MP7       0.140300
     10 C6          -4.6260     1.4200     0.4510 ca         1 MP7      -0.093300
     11 C7          -4.2870     1.0710     1.7740 ca         1 MP7      -0.062000
     12 C8          -5.2790     0.6330     2.6700 ca         1 MP7      -0.134000
     13 C9          -6.6140     0.5420     2.2470 ca         1 MP7       0.145000
     14 C10         -6.9590     0.8890     0.9270 ca         1 MP7       0.133000
     15 C11         -5.9690     1.3270     0.0310 ca         1 MP7      -0.117000
     16 F12         -7.5630     0.1190     3.1140 f          1 MP7      -0.157000
     17 C13          6.1820     0.8260    -2.0140 ca         1 MP7      -0.030400
     18 C14          5.2390     1.5640    -1.3310 ca         1 MP7       0.037600
     19 C15          4.0970     0.9840    -0.7790 ca         1 MP7      -0.141000
     20 C16          3.9320    -0.4100    -0.9430 ca         1 MP7       0.149100
     21 C17          4.9090    -1.1740    -1.6510 ca         1 MP7      -0.190000
     22 C18          6.0570    -0.5530    -2.1990 ca         1 MP7      -0.075000
     23 N19          7.1640     1.7490    -2.4100 ns         1 MP7      -0.503600
     24 N20          5.7100     2.8850    -1.3570 ns         1 MP7      -0.508600
     25 C22          2.5290    -2.3960    -0.4990 c3         1 MP7       0.154600
     26 C23          1.1890    -2.7160     0.2180 c3         1 MP7       0.174000
     27 C24          1.2880    -2.5730     1.7390 ca         1 MP7      -0.094300
     28 C25          1.3340    -3.7240     2.5510 ca         1 MP7      -0.089000
     29 C26          1.4220    -3.6070     3.9490 ca         1 MP7      -0.112500
     30 C27          1.4630    -2.3380     4.5490 ca         1 MP7      -0.106000
     31 C28          1.4160    -1.1850     3.7480 ca         1 MP7      -0.112500
     32 C29          1.3290    -1.3000     2.3500 ca         1 MP7      -0.089000
     33 C30          6.8990     3.0330    -2.0170 c          1 MP7       0.593000
     34 O31          7.5500     4.0420    -2.2050 o          1 MP7      -0.566000
     35 N32          0.0670    -1.9280    -0.2990 ns         1 MP7      -0.503900
     36 C33         -0.5080    -2.0710    -1.5330 c          1 MP7       0.623300
     37 O34         -0.1370    -2.9580    -2.2900 o          1 MP7      -0.618100
     38 H1          -1.8750    -2.0440    -3.8110 ha         1 MP7       0.218000
     39 H2          -3.7150    -0.4750    -4.4910 ha         1 MP7       0.209000
     40 H3          -4.4320     1.3490    -2.8740 h4         1 MP7       0.203000
     41 H5          -2.7070     2.3170     0.0360 h1         1 MP7       0.071200
     42 H5A         -3.9520     2.7030    -1.1360 h1         1 MP7       0.071200
     43 H7          -3.2530     1.1360     2.1090 ha         1 MP7       0.132000
     44 H8          -5.0140     0.3630     3.6900 ha         1 MP7       0.133000
     45 H11         -6.2490     1.5900    -0.9860 ha         1 MP7       0.133000
     46 H17          4.7930    -2.2450    -1.7840 ha         1 MP7       0.121000
     47 H18          6.8090    -1.1240    -2.7400 ha         1 MP7       0.122000
     48 HN19         7.9990     1.5100    -2.9370 hn         1 MP7       0.467000
     49 HN20         5.2290     3.6710    -0.9320 hn         1 MP7       0.464000
     50 H22          2.4540    -2.6940    -1.5520 h1         1 MP7       0.046200
     51 H22A         3.3320    -2.9820    -0.0330 h1         1 MP7       0.046200
     52 H23          0.9630    -3.7690     0.0010 h1         1 MP7       0.076700
     53 H25          1.3030    -4.7140     2.1010 ha         1 MP7       0.112000
     54 H26          1.4580    -4.5010     4.5680 ha         1 MP7       0.110500
     55 H27          1.5310    -2.2470     5.6310 ha         1 MP7       0.110000
     56 H28          1.4480    -0.2000     4.2100 ha         1 MP7       0.110500
     57 H29          1.2940    -0.3980     1.7440 ha         1 MP7       0.112000
     58 HN32        -0.2930    -1.1670     0.2690 hn         1 MP7       0.363500
     59 O21          2.8030    -0.9830    -0.3970 os         1 MP7      -0.347100
     60 H15          3.3620     1.5770    -0.2430 ha         1 MP7       0.141000
@<TRIPOS>BOND
     1     1     5 2   
     2     1     8 1   
     3     1    36 1   
     4     2    14 1   
     5     3     7 1   
     6     3     8 1   
     7     3     9 1   
     8     4     8 2   
     9     5     6 1   
    10     5    38 1   
    11     6     7 2   
    12     6    39 1   
    13     7    40 1   
    14     9    10 1   
    15     9    41 1   
    16     9    42 1   
    17    10    11 ar  
    18    10    15 ar  
    19    11    12 ar  
    20    11    43 1   
    21    12    13 ar  
    22    12    44 1   
    23    13    14 ar  
    24    13    16 1   
    25    14    15 ar  
    26    15    45 1   
    27    17    18 ar  
    28    17    22 ar  
    29    17    23 1   
    30    18    19 ar  
    31    18    24 1   
    32    19    20 ar  
    33    19    60 1   
    34    20    21 ar  
    35    20    59 1   
    36    21    22 ar  
    37    21    46 1   
    38    22    47 1   
    39    23    33 1   
    40    23    48 1   
    41    24    33 1   
    42    24    49 1   
    43    25    26 1   
    44    25    50 1   
    45    25    51 1   
    46    25    59 1   
    47    26    27 1   
    48    26    35 1   
    49    26    52 1   
    50    27    28 ar  
    51    27    32 ar  
    52    28    29 ar  
    53    28    53 1   
    54    29    30 ar  
    55    29    54 1   
    56    30    31 ar  
    57    30    55 1   
    58    31    32 ar  
    59    31    56 1   
    60    32    57 1   
    61    33    34 2   
    62    35    36 1   
    63    35    58 1   
    64    36    37 2   
@<TRIPOS>SUBSTRUCTURE
     1 MP7         1 TEMP              0 ****  ****    0 ROOT
