@<TRIPOS>MOLECULE
MP7
   60    64     1     0     0
SMALL
bcc


@<TRIPOS>ATOM
      1 C           -2.1240    -2.2600    -1.4700 cc         1 MP7      -0.298400
      2 F           -4.0820     2.4360     2.3630 f          1 MP7      -0.123900
      3 N           -3.0690    -0.1330    -2.0520 n          1 MP7      -0.329000
      4 O           -0.8760    -0.2260    -1.5410 o          1 MP7      -0.651500
      5 C1          -3.3530    -2.8210    -1.6890 cd         1 MP7       0.029000
      6 C2          -4.4510    -2.0510    -2.0990 cd         1 MP7      -0.253000
      7 C3          -4.2690    -0.7140    -2.2640 cc         1 MP7       0.030600
      8 C4          -1.9340    -0.8420    -1.6730 c          1 MP7       0.705700
      9 C5          -2.9130     1.3110    -2.2240 c3         1 MP7       0.140300
     10 C6          -2.6290     2.0190    -0.9260 ca         1 MP7      -0.093300
     11 C7          -1.5120     2.8330    -0.7950 ca         1 MP7      -0.080000
     12 C8          -1.2680     3.5200     0.3860 ca         1 MP7      -0.152000
     13 C9          -2.1390     3.3760     1.4440 ca         1 MP7       0.109900
     14 C10         -3.2500     2.5590     1.3230 ca         1 MP7       0.097900
     15 C11         -3.5050     1.8860     0.1480 ca         1 MP7      -0.135000
     16 F12         -1.9250     4.0210     2.5950 f          1 MP7      -0.121900
     17 C13          4.4290     2.2110    -0.7800 ca         1 MP7      -0.030400
     18 C14          3.2010     2.2820    -0.1120 ca         1 MP7       0.037600
     19 C15          2.4830     1.1510     0.2120 ca         1 MP7      -0.159000
     20 C16          3.0370    -0.0830    -0.1380 ca         1 MP7       0.149100
     21 C17          4.2630    -0.1630    -0.7960 ca         1 MP7      -0.208000
     22 C18          4.9700     0.9940    -1.1290 ca         1 MP7      -0.093000
     23 N19          4.8570     3.5130    -0.9560 ns         1 MP7      -0.457100
     24 N20          2.9410     3.6190     0.0840 ns         1 MP7      -0.462100
     25 C22          2.5310    -2.3980    -0.4390 c3         1 MP7       0.131400
     26 C23          1.2930    -3.2590    -0.2210 c3         1 MP7       0.174000
     27 C24          1.1190    -3.6230     1.2400 ca         1 MP7      -0.094300
     28 C25          1.7360    -4.7690     1.7320 ca         1 MP7      -0.107000
     29 C26          1.6330    -5.1110     3.0730 ca         1 MP7      -0.130500
     30 C27          0.9060    -4.3080     3.9410 ca         1 MP7      -0.124000
     31 C28          0.2860    -3.1630     3.4570 ca         1 MP7      -0.130500
     32 C29          0.3950    -2.8210     2.1150 ca         1 MP7      -0.107000
     33 C30          3.9560     4.3980    -0.4260 c          1 MP7       0.802500
     34 O31          4.0300     5.6130    -0.4060 o          1 MP7      -0.641500
     35 N32          0.1590    -2.5590    -0.7710 ns         1 MP7      -0.570900
     36 C33         -1.0170    -3.1540    -1.0080 c          1 MP7       0.690300
     37 O34         -1.2000    -4.3560    -0.8530 o          1 MP7      -0.618100
     38 H1          -3.4770    -3.8860    -1.5380 ha         1 MP7       0.168000
     39 H2          -5.4200    -2.4910    -2.2780 ha         1 MP7       0.159000
     40 H3          -5.0700    -0.0580    -2.5720 h4         1 MP7       0.153000
     41 H5          -2.1200     1.5020    -2.9440 h1         1 MP7       0.071200
     42 H5A         -3.8410     1.6820    -2.6580 h1         1 MP7       0.071200
     43 H7          -0.8180     2.9350    -1.6170 ha         1 MP7       0.150000
     44 H8          -0.4050     4.1650     0.4880 ha         1 MP7       0.151000
     45 H11         -4.3880     1.2620     0.0860 ha         1 MP7       0.151000
     46 H17          4.6930    -1.1220    -1.0520 ha         1 MP7       0.139000
     47 H18          5.9190     0.9230    -1.6440 ha         1 MP7       0.140000
     48 HN19         5.7120     3.8000    -1.4020 hn         1 MP7       0.353500
     49 HN20         2.1510     4.0070     0.5720 hn         1 MP7       0.350500
     50 H22          2.6820    -2.2480    -1.5140 h1         1 MP7       0.046200
     51 H22A         3.4110    -2.9110    -0.0390 h1         1 MP7       0.046200
     52 H23          1.4600    -4.1810    -0.7850 h1         1 MP7       0.076700
     53 H25          2.2990    -5.4050     1.0580 ha         1 MP7       0.130000
     54 H26          2.1140    -6.0100     3.4380 ha         1 MP7       0.128500
     55 H27          0.8180    -4.5740     4.9870 ha         1 MP7       0.128000
     56 H28         -0.2860    -2.5330     4.1250 ha         1 MP7       0.128500
     57 H29         -0.0980    -1.9270     1.7530 ha         1 MP7       0.130000
     58 HN32         0.1980    -1.5510    -0.8940 hn         1 MP7       0.363500
     59 O21          2.3070    -1.1670     0.2150 os         1 MP7      -0.323900
     60 H15          1.5230     1.2010     0.7110 ha         1 MP7       0.159000
@<TRIPOS>BOND
     1     1     5 2   
     2     1     8 1   
     3     1    36 1   
     4     2    14 1   
     5     3     7 1   
     6     3     8 1   
     7     3     9 1   
     8     4     8 2   
     9     5     6 1   
    10     5    38 1   
    11     6     7 2   
    12     6    39 1   
    13     7    40 1   
    14     9    10 1   
    15     9    41 1   
    16     9    42 1   
    17    10    11 ar  
    18    10    15 ar  
    19    11    12 ar  
    20    11    43 1   
    21    12    13 ar  
    22    12    44 1   
    23    13    14 ar  
    24    13    16 1   
    25    14    15 ar  
    26    15    45 1   
    27    17    18 ar  
    28    17    22 ar  
    29    17    23 1   
    30    18    19 ar  
    31    18    24 1   
    32    19    20 ar  
    33    19    60 1   
    34    20    21 ar  
    35    20    59 1   
    36    21    22 ar  
    37    21    46 1   
    38    22    47 1   
    39    23    33 1   
    40    23    48 1   
    41    24    33 1   
    42    24    49 1   
    43    25    26 1   
    44    25    50 1   
    45    25    51 1   
    46    25    59 1   
    47    26    27 1   
    48    26    35 1   
    49    26    52 1   
    50    27    28 ar  
    51    27    32 ar  
    52    28    29 ar  
    53    28    53 1   
    54    29    30 ar  
    55    29    54 1   
    56    30    31 ar  
    57    30    55 1   
    58    31    32 ar  
    59    31    56 1   
    60    32    57 1   
    61    33    34 2   
    62    35    36 1   
    63    35    58 1   
    64    36    37 2   
@<TRIPOS>SUBSTRUCTURE
     1 MP7         1 TEMP              0 ****  ****    0 ROOT
