@<TRIPOS>MOLECULE
MP8
   19    19     1     0     0
SMALL
No Charge or Current Charge


@<TRIPOS>ATOM
      1 C           -1.4570     0.3770     1.4300 c          1 MP8       0.938600
      2 N           -1.9150    -0.1910     4.0150 n7         1 MP8      -0.742200
      3 O           -0.9650     1.4670     1.7200 o          1 MP8      -0.833800
      4 CA          -2.0570    -0.5850     2.5640 c5         1 MP8       0.014500
      5 CB          -3.6010    -0.6690     2.4360 c5         1 MP8      -0.085400
      6 CD          -2.9780     0.8220     4.2570 c5         1 MP8       0.159800
      7 CE          -5.4970     0.7240     3.5500 c3         1 MP8      -0.075100
      8 CG          -4.0200     0.6690     3.1020 c5         1 MP8      -0.101700
      9 OXT         -1.4150    -0.0300     0.2720 o          1 MP8      -0.833800
     10 H2          -2.1420    -1.0130     4.5810 hn         1 MP8       0.293800
     11 HA          -1.6010    -1.5700     2.4000 h1         1 MP8       0.039700
     12 HB          -3.9440    -0.7520     1.3980 hc         1 MP8       0.027700
     13 HBA         -3.9980    -1.5340     2.9810 hc         1 MP8       0.027700
     14 HD          -3.4320     0.6580     5.2440 h1         1 MP8       0.029700
     15 HDA         -2.5550     1.8360     4.2560 h1         1 MP8       0.029700
     16 HE          -5.7290     1.6870     4.0210 hc         1 MP8       0.014700
     17 HEA         -6.1720     0.5980     2.6950 hc         1 MP8       0.014700
     18 HEB         -5.7220    -0.0670     4.2750 hc         1 MP8       0.014700
     19 HG          -3.8910     1.4940     2.3900 hc         1 MP8       0.067700
@<TRIPOS>BOND
     1     1     3 1   
     2     1     4 1   
     3     1     9 1   
     4     2     4 1   
     5     2     6 1   
     6     2    10 1   
     7     4     5 1   
     8     4    11 1   
     9     5     8 1   
    10     5    12 1   
    11     5    13 1   
    12     6     8 1   
    13     6    14 1   
    14     6    15 1   
    15     7     8 1   
    16     7    16 1   
    17     7    17 1   
    18     7    18 1   
    19     8    19 1   
@<TRIPOS>SUBSTRUCTURE
     1 MP8         1 TEMP              0 ****  ****    0 ROOT
