@<TRIPOS>MOLECULE
MP8
   19    19     1     0     0
SMALL
bcc


@<TRIPOS>ATOM
      1 C           -1.3850     0.3030     1.5200 c          1 MP8       0.938600
      2 N           -1.9310    -0.1330     3.9460 n7         1 MP8      -0.742200
      3 O           -0.8540     1.3650     1.8990 o          1 MP8      -0.833800
      4 CA          -2.0950    -0.5880     2.5660 c5         1 MP8       0.014500
      5 CB          -3.6150    -0.5820     2.3510 c5         1 MP8      -0.085400
      6 CD          -2.9810     0.8630     4.1780 c5         1 MP8       0.159800
      7 CE          -5.4760     0.6560     3.6050 c3         1 MP8      -0.075100
      8 CG          -4.0540     0.6970     3.0710 c5         1 MP8      -0.101700
      9 OXT         -1.4250    -0.1360     0.3510 o          1 MP8      -0.833800
     10 H2          -2.1230    -0.9260     4.5450 hn         1 MP8       0.293800
     11 HA          -1.6870    -1.5990     2.4740 h1         1 MP8       0.039700
     12 HB          -3.9170    -0.6090     1.3040 hc         1 MP8       0.027700
     13 HBA         -4.0590    -1.4550     2.8420 hc         1 MP8       0.027700
     14 HD          -3.4110     0.7240     5.1730 h1         1 MP8       0.029700
     15 HDA         -2.5650     1.8730     4.1530 h1         1 MP8       0.029700
     16 HE          -5.7400     1.5860     4.1140 hc         1 MP8       0.014700
     17 HEA         -6.2030     0.5050     2.8050 hc         1 MP8       0.014700
     18 HEB         -5.5980    -0.1590     4.3220 hc         1 MP8       0.014700
     19 HG          -3.9710     1.5350     2.3710 hc         1 MP8       0.067700
@<TRIPOS>BOND
     1     1     3 1   
     2     1     4 1   
     3     1     9 1   
     4     2     4 1   
     5     2     6 1   
     6     2    10 1   
     7     4     5 1   
     8     4    11 1   
     9     5     8 1   
    10     5    12 1   
    11     5    13 1   
    12     6     8 1   
    13     6    14 1   
    14     6    15 1   
    15     7     8 1   
    16     7    16 1   
    17     7    17 1   
    18     7    18 1   
    19     8    19 1   
@<TRIPOS>SUBSTRUCTURE
     1 MP8         1 TEMP              0 ****  ****    0 ROOT
