@<TRIPOS>MOLECULE
MP9
   37    39     1     0     0
SMALL
abcg2


@<TRIPOS>ATOM
      1 C1           6.5590    24.7900    21.6880 cc         1 MP9      -0.104300
      2 C2           7.2850    24.2140    22.6850 cd         1 MP9       0.142000
      3 O3           6.5540    23.2820    23.3410 os         1 MP9      -0.076700
      4 N4           5.2800    23.2240    22.7570 nd         1 MP9      -0.477300
      5 C5           5.3080    24.1130    21.7960 cc         1 MP9       0.501300
      6 C6           8.6370    24.4230    23.1520 cd         1 MP9       0.466000
      7 N7           9.1900    23.7910    24.2160 nd         1 MP9      -0.363000
      8 N8          10.4110    24.2540    24.3190 nc         1 MP9      -0.205800
      9 N9          10.5650    25.1270    23.3430 na         1 MP9       0.228600
     10 N10          9.4940    25.2710    22.5880 nc         1 MP9      -0.459800
     11 C11         11.8000    25.8900    23.1250 c3         1 MP9       0.151900
     12 C12         11.0590    30.0920    23.6140 ca         1 MP9      -0.099000
     13 C13         11.0170    29.5210    22.3460 ca         1 MP9      -0.116500
     14 C14         11.2700    28.1630    22.1850 ca         1 MP9      -0.073500
     15 C15         11.5640    27.3680    23.2910 ca         1 MP9      -0.131300
     16 C16         11.6060    27.9440    24.5600 ca         1 MP9      -0.073500
     17 C17         11.3550    29.3020    24.7220 ca         1 MP9      -0.116500
     18 O23          4.2610    24.3600    21.0030 oh         1 MP9      -0.613300
     19 C24          6.9270    25.8290    20.6870 c3         1 MP9       0.004900
     20 C25          7.3820    25.2460    19.3310 c3         1 MP9       0.025500
     21 C26          7.5970    26.4430    18.3630 c          1 MP9       0.685000
     22 O27          8.7610    26.9060    18.2660 o          1 MP9      -0.733000
     23 O28          6.5710    26.8710    17.7760 o          1 MP9      -0.733000
     24 N29          8.5410    24.3740    19.5170 n8         1 MP9      -1.005200
     25 HO23         3.5070    23.8080    21.2630 ho         1 MP9       0.469000
     26 H111        12.5100    25.5070    23.8530 h1         1 MP9       0.079200
     27 H112        12.1490    25.6520    22.1210 h1         1 MP9       0.079200
     28 H14         11.2320    27.7150    21.2000 ha         1 MP9       0.128000
     29 H16         11.8360    27.3280    25.4210 ha         1 MP9       0.128000
     30 H17         11.3930    29.7440    25.7090 ha         1 MP9       0.117000
     31 H241         6.0650    26.4730    20.5080 hc         1 MP9       0.064700
     32 H242         7.7280    26.4530    21.0860 hc         1 MP9       0.064700
     33 H25          6.5670    24.6410    18.9260 h1         1 MP9       0.050700
     34 H291         8.7940    23.9690    18.6210 hn         1 MP9       0.384500
     35 H292         9.3320    24.9500    19.7900 hn         1 MP9       0.384500
     36 H12         10.8650    31.1490    23.7400 ha         1 MP9       0.108000
     37 H13         10.7890    30.1320    21.4820 ha         1 MP9       0.117000
@<TRIPOS>BOND
     1     1     2 2   
     2     1     5 1   
     3     1    19 1   
     4     2     3 1   
     5     2     6 1   
     6     3     4 1   
     7     4     5 2   
     8     5    18 1   
     9     6     7 1   
    10     6    10 2   
    11     7     8 2   
    12     8     9 1   
    13     9    10 1   
    14     9    11 1   
    15    11    15 1   
    16    11    26 1   
    17    11    27 1   
    18    12    13 ar  
    19    12    17 ar  
    20    12    36 1   
    21    13    14 ar  
    22    13    37 1   
    23    14    15 ar  
    24    14    28 1   
    25    15    16 ar  
    26    16    17 ar  
    27    16    29 1   
    28    17    30 1   
    29    18    25 1   
    30    19    20 1   
    31    19    31 1   
    32    19    32 1   
    33    20    21 1   
    34    20    24 1   
    35    20    33 1   
    36    21    22 1   
    37    21    23 1   
    38    24    34 1   
    39    24    35 1   
@<TRIPOS>SUBSTRUCTURE
     1 MP9         1 TEMP              0 ****  ****    0 ROOT
