@<TRIPOS>MOLECULE
MP9
   37    39     1     0     0
SMALL
No Charge or Current Charge


@<TRIPOS>ATOM
      1 C1           6.5330    24.6580    21.7260 cc         1 MP9      -0.104300
      2 C2           7.2820    24.1420    22.7530 cd         1 MP9       0.142000
      3 O3           6.5610    23.2200    23.4750 os         1 MP9      -0.076700
      4 N4           5.2520    23.1190    22.8930 nd         1 MP9      -0.477300
      5 C5           5.3130    23.9710    21.8940 cc         1 MP9       0.501300
      6 C6           8.6500    24.4720    23.0960 cd         1 MP9       0.466000
      7 N7           9.3220    23.8880    24.1550 nd         1 MP9      -0.363000
      8 N8          10.5170    24.4000    24.1980 nc         1 MP9      -0.205800
      9 N9          10.5500    25.2870    23.1680 na         1 MP9       0.228600
     10 N10          9.3980    25.3540    22.4570 nc         1 MP9      -0.459800
     11 C11         11.7360    26.1060    22.8540 c3         1 MP9       0.151900
     12 C12         11.4090    30.2920    24.0050 ca         1 MP9      -0.099000
     13 C13         11.8840    29.9450    22.7300 ca         1 MP9      -0.116500
     14 C14         11.9880    28.5930    22.3600 ca         1 MP9      -0.073500
     15 C15         11.6150    27.5760    23.2630 ca         1 MP9      -0.131300
     16 C16         11.1430    27.9320    24.5450 ca         1 MP9      -0.073500
     17 C17         11.0400    29.2850    24.9120 ca         1 MP9      -0.116500
     18 O23          4.2590    24.1700    21.0960 oh         1 MP9      -0.613300
     19 C24          6.8110    25.6770    20.6380 c3         1 MP9       0.004900
     20 C25          7.1560    25.0420    19.2650 c3         1 MP9       0.025500
     21 C26          7.2910    26.1750    18.1680 c          1 MP9       0.685000
     22 O27          8.3180    26.8400    18.1390 o          1 MP9      -0.733000
     23 O28          6.4120    26.2700    17.3230 o          1 MP9      -0.733000
     24 N29          8.3220    24.0860    19.3830 n8         1 MP9      -1.005200
     25 HO23         3.5810    23.5650    21.4580 ho         1 MP9       0.469000
     26 H111        12.6050    25.6660    23.3580 h1         1 MP9       0.079200
     27 H112        11.9150    26.0340    21.7750 h1         1 MP9       0.079200
     28 H14         12.3590    28.3370    21.3690 ha         1 MP9       0.128000
     29 H16         10.8580    27.1640    25.2600 ha         1 MP9       0.128000
     30 H17         10.6740    29.5530    25.9010 ha         1 MP9       0.117000
     31 H241         5.9220    26.3060    20.5070 hc         1 MP9       0.064700
     32 H242         7.6040    26.3700    20.9330 hc         1 MP9       0.064700
     33 H25          6.2890    24.4360    18.9650 h1         1 MP9       0.050700
     34 H291         8.5260    23.6920    18.4560 hn         1 MP9       0.384500
     35 H292         9.1650    24.6340    19.5960 hn         1 MP9       0.384500
     36 H12         11.3280    31.3390    24.2900 ha         1 MP9       0.108000
     37 H13         12.1720    30.7240    22.0270 ha         1 MP9       0.117000
@<TRIPOS>BOND
     1     1     2 2   
     2     1     5 1   
     3     1    19 1   
     4     2     3 1   
     5     2     6 1   
     6     3     4 1   
     7     4     5 2   
     8     5    18 1   
     9     6     7 1   
    10     6    10 2   
    11     7     8 2   
    12     8     9 1   
    13     9    10 1   
    14     9    11 1   
    15    11    15 1   
    16    11    26 1   
    17    11    27 1   
    18    12    13 ar  
    19    12    17 ar  
    20    12    36 1   
    21    13    14 ar  
    22    13    37 1   
    23    14    15 ar  
    24    14    28 1   
    25    15    16 ar  
    26    16    17 ar  
    27    16    29 1   
    28    17    30 1   
    29    18    25 1   
    30    19    20 1   
    31    19    31 1   
    32    19    32 1   
    33    20    21 1   
    34    20    24 1   
    35    20    33 1   
    36    21    22 1   
    37    21    23 1   
    38    24    34 1   
    39    24    35 1   
@<TRIPOS>SUBSTRUCTURE
     1 MP9         1 TEMP              0 ****  ****    0 ROOT
