@<TRIPOS>MOLECULE
MPA
   52    52     1     0     0
SMALL
No Charge or Current Charge


@<TRIPOS>ATOM
      1 C1           2.7950     3.2710     5.1660 c3         1 MPA      -0.447400
      2 C2           3.0460     3.6350     6.6470 c3         1 MPA      -0.039400
      3 C3           1.8150     4.2770     7.3230 c3         1 MPA      -0.073400
      4 C4           2.0580     4.6440     8.8030 c3         1 MPA      -0.077400
      5 C5           0.8270     5.2860     9.4780 c3         1 MPA      -0.076400
      6 C6           1.0690     5.6520    10.9550 c3         1 MPA      -0.087100
      7 C7           2.4610     2.0830     2.3040 c6         1 MPA       0.253300
      8 C8           2.1960     0.5840     2.6310 c6         1 MPA      -0.116400
      9 C9           0.8380     0.0940     2.0650 c6         1 MPA      -0.059700
     10 C10          0.7580     0.3550     0.5410 c6         1 MPA      -0.070400
     11 C11          0.9840     1.8490     0.2180 c6         1 MPA      -0.073400
     12 C12          2.3540     2.3550     0.7650 c6         1 MPA      -0.055700
     13 C13          0.5910    -1.4010     2.3980 c3         1 MPA      -0.081100
     14 C14          2.6550     3.8540     0.3780 c3         1 MPA      -0.054700
     15 C15          2.7760     4.0780    -1.1490 c3         1 MPA      -0.081100
     16 C16          1.6810     4.8890     0.9970 c3         1 MPA      -0.081100
     17 O1           3.7450     2.5380     2.7790 os         1 MPA      -0.601400
     18 O2           4.4200     1.0780     4.8150 o          1 MPA      -0.817500
     19 P1           4.2280     2.4750     4.3230 p5         1 MPA       1.406400
     20 H11          1.9470     2.5810     5.1000 hc         1 MPA       0.037200
     21 H12A         2.5420     4.1730     4.5980 hc         1 MPA       0.037200
     22 H21          3.8950     4.3280     6.7140 hc         1 MPA       0.045200
     23 H22          3.3290     2.7290     7.2000 hc         1 MPA       0.045200
     24 H31          1.5330     5.1820     6.7700 hc         1 MPA       0.025700
     25 H32          0.9670     3.5850     7.2580 hc         1 MPA       0.025700
     26 H41          2.9070     5.3370     8.8680 hc         1 MPA       0.035700
     27 H42          2.3410     3.7390     9.3560 hc         1 MPA       0.035700
     28 H51          0.5430     6.1930     8.9290 hc         1 MPA       0.031200
     29 H52         -0.0230     4.5950     9.4170 hc         1 MPA       0.031200
     30 H61          0.1690     6.1040    11.3890 hc         1 MPA       0.024033
     31 H62          1.3210     4.7590    11.5390 hc         1 MPA       0.024033
     32 H63          1.8920     6.3710    11.0460 hc         1 MPA       0.024033
     33 H7           1.6800     2.6750     2.8010 h1         1 MPA       0.007700
     34 H81          2.1840     0.4300     3.7170 hc         1 MPA       0.065700
     35 H82          3.0140    -0.0290     2.2300 hc         1 MPA       0.065700
     36 H9           0.0310     0.6560     2.5580 hc         1 MPA       0.036700
     37 H101        -0.2230     0.0430     0.1580 hc         1 MPA       0.025700
     38 H102         1.5060    -0.2540     0.0150 hc         1 MPA       0.025700
     39 H111         0.9300     1.9830    -0.8700 hc         1 MPA       0.028200
     40 H112         0.1620     2.4380     0.6460 hc         1 MPA       0.028200
     41 H12          3.1420     1.7620     0.2790 hc         1 MPA       0.050700
     42 H131        -0.3870    -1.7320     2.0280 hc         1 MPA       0.025700
     43 H132         1.3550    -2.0430     1.9430 hc         1 MPA       0.025700
     44 H133         0.6090    -1.5740     3.4810 hc         1 MPA       0.025700
     45 H14          3.6470     4.0980     0.7790 hc         1 MPA       0.086700
     46 H151         1.8030     3.9850    -1.6450 hc         1 MPA       0.022033
     47 H152         3.1640     5.0820    -1.3600 hc         1 MPA       0.022033
     48 H153         3.4640     3.3520    -1.5970 hc         1 MPA       0.022033
     49 H161         0.6600     4.7460     0.6250 hc         1 MPA       0.022033
     50 H162         1.9920     5.9080     0.7390 hc         1 MPA       0.022033
     51 H163         1.6660     4.8180     2.0900 hc         1 MPA       0.022033
     52 O3           5.4480     3.3140     4.5250 o          1 MPA      -0.817500
@<TRIPOS>BOND
     1     1     2 1   
     2     1    19 1   
     3     1    20 1   
     4     1    21 1   
     5     2     3 1   
     6     2    22 1   
     7     2    23 1   
     8     3     4 1   
     9     3    24 1   
    10     3    25 1   
    11     4     5 1   
    12     4    26 1   
    13     4    27 1   
    14     5     6 1   
    15     5    28 1   
    16     5    29 1   
    17     6    30 1   
    18     6    31 1   
    19     6    32 1   
    20     7     8 1   
    21     7    12 1   
    22     7    17 1   
    23     7    33 1   
    24     8     9 1   
    25     8    34 1   
    26     8    35 1   
    27     9    10 1   
    28     9    13 1   
    29     9    36 1   
    30    10    11 1   
    31    10    37 1   
    32    10    38 1   
    33    11    12 1   
    34    11    39 1   
    35    11    40 1   
    36    12    14 1   
    37    12    41 1   
    38    13    42 1   
    39    13    43 1   
    40    13    44 1   
    41    14    15 1   
    42    14    16 1   
    43    14    45 1   
    44    15    46 1   
    45    15    47 1   
    46    15    48 1   
    47    16    49 1   
    48    16    50 1   
    49    16    51 1   
    50    17    19 1   
    51    18    19 1   
    52    19    52 1   
@<TRIPOS>SUBSTRUCTURE
     1 MPA         1 TEMP              0 ****  ****    0 ROOT
