@<TRIPOS>MOLECULE
MPA
   52    52     1     0     0
SMALL
abcg2


@<TRIPOS>ATOM
      1 C1           2.7210     3.3640     5.1370 c3         1 MPA      -0.447400
      2 C2           2.9980     3.7190     6.5970 c3         1 MPA      -0.039400
      3 C3           1.7930     4.3420     7.2920 c3         1 MPA      -0.073400
      4 C4           2.0580     4.7020     8.7480 c3         1 MPA      -0.077400
      5 C5           0.8440     5.2990     9.4510 c3         1 MPA      -0.076400
      6 C6           1.1180     5.6560    10.9060 c3         1 MPA      -0.087100
      7 C7           2.4580     1.9880     2.3020 c6         1 MPA       0.253300
      8 C8           2.2160     0.4990     2.5390 c6         1 MPA      -0.116400
      9 C9           0.8540     0.0520     2.0160 c6         1 MPA      -0.059700
     10 C10          0.7210     0.4110     0.5410 c6         1 MPA      -0.070400
     11 C11          0.9850     1.8920     0.2960 c6         1 MPA      -0.073400
     12 C12          2.3600     2.3260     0.8110 c6         1 MPA      -0.055700
     13 C13          0.6240    -1.4330     2.2600 c3         1 MPA      -0.081100
     14 C14          2.6970     3.7960     0.4940 c3         1 MPA      -0.054700
     15 C15          2.7910     4.0370    -1.0100 c3         1 MPA      -0.081100
     16 C16          1.7410     4.7950     1.1410 c3         1 MPA      -0.081100
     17 O1           3.7270     2.4080     2.7730 os         1 MPA      -0.601400
     18 O2           4.2840     1.1440     4.9710 o          1 MPA      -0.817500
     19 P1           4.1510     2.5210     4.3680 p5         1 MPA       1.406400
     20 H11          1.8390     2.7170     5.0900 hc         1 MPA       0.037200
     21 H12A         2.4720     4.2710     4.5770 hc         1 MPA       0.037200
     22 H21          3.8480     4.4050     6.6510 hc         1 MPA       0.045200
     23 H22          3.2960     2.8160     7.1390 hc         1 MPA       0.045200
     24 H31          1.4820     5.2390     6.7440 hc         1 MPA       0.025700
     25 H32          0.9480     3.6460     7.2400 hc         1 MPA       0.025700
     26 H41          2.8920     5.4100     8.8020 hc         1 MPA       0.035700
     27 H42          2.3830     3.8070     9.2900 hc         1 MPA       0.035700
     28 H51          0.5160     6.1920     8.9090 hc         1 MPA       0.031200
     29 H52          0.0120     4.5900     9.4000 hc         1 MPA       0.031200
     30 H61          0.2330     6.0640    11.3940 hc         1 MPA       0.024033
     31 H62          1.4310     4.7770    11.4740 hc         1 MPA       0.024033
     32 H63          1.9130     6.3990    10.9890 hc         1 MPA       0.024033
     33 H7           1.6650     2.5450     2.8220 h1         1 MPA       0.007700
     34 H81          2.2990     0.2790     3.6050 hc         1 MPA       0.065700
     35 H82          3.0050    -0.0750     2.0380 hc         1 MPA       0.065700
     36 H9           0.0810     0.6080     2.5640 hc         1 MPA       0.036700
     37 H101        -0.2760     0.1450     0.1760 hc         1 MPA       0.025700
     38 H102         1.4330    -0.1880    -0.0390 hc         1 MPA       0.025700
     39 H111         0.8970     2.1070    -0.7710 hc         1 MPA       0.028200
     40 H112         0.2010     2.4770     0.7910 hc         1 MPA       0.028200
     41 H12          3.1110     1.7110     0.2930 hc         1 MPA       0.050700
     42 H131        -0.3570    -1.7470     1.8980 hc         1 MPA       0.025700
     43 H132         1.3760    -2.0360     1.7440 hc         1 MPA       0.025700
     44 H133         0.6790    -1.6770     3.3230 hc         1 MPA       0.025700
     45 H14          3.6920     3.9870     0.9050 hc         1 MPA       0.086700
     46 H151         1.8290     3.9140    -1.5120 hc         1 MPA       0.022033
     47 H152         3.1360     5.0510    -1.2170 hc         1 MPA       0.022033
     48 H153         3.4980     3.3480    -1.4790 hc         1 MPA       0.022033
     49 H161         0.7160     4.6740     0.7830 hc         1 MPA       0.022033
     50 H162         2.0450     5.8180     0.9100 hc         1 MPA       0.022033
     51 H163         1.7240     4.7010     2.2280 hc         1 MPA       0.022033
     52 O3           5.3480     3.4360     4.3690 o          1 MPA      -0.817500
@<TRIPOS>BOND
     1     1     2 1   
     2     1    19 1   
     3     1    20 1   
     4     1    21 1   
     5     2     3 1   
     6     2    22 1   
     7     2    23 1   
     8     3     4 1   
     9     3    24 1   
    10     3    25 1   
    11     4     5 1   
    12     4    26 1   
    13     4    27 1   
    14     5     6 1   
    15     5    28 1   
    16     5    29 1   
    17     6    30 1   
    18     6    31 1   
    19     6    32 1   
    20     7     8 1   
    21     7    12 1   
    22     7    17 1   
    23     7    33 1   
    24     8     9 1   
    25     8    34 1   
    26     8    35 1   
    27     9    10 1   
    28     9    13 1   
    29     9    36 1   
    30    10    11 1   
    31    10    37 1   
    32    10    38 1   
    33    11    12 1   
    34    11    39 1   
    35    11    40 1   
    36    12    14 1   
    37    12    41 1   
    38    13    42 1   
    39    13    43 1   
    40    13    44 1   
    41    14    15 1   
    42    14    16 1   
    43    14    45 1   
    44    15    46 1   
    45    15    47 1   
    46    15    48 1   
    47    16    49 1   
    48    16    50 1   
    49    16    51 1   
    50    17    19 1   
    51    18    19 1   
    52    19    52 1   
@<TRIPOS>SUBSTRUCTURE
     1 MPA         1 TEMP              0 ****  ****    0 ROOT
