@<TRIPOS>MOLECULE
MPB
   19    19     1     0     0
SMALL
No Charge or Current Charge


@<TRIPOS>ATOM
      1 C           -0.3870     0.0170     1.7450 c          1 MPB       0.612700
      2 O1          -1.5080     0.0080     2.2380 o          1 MPB      -0.496000
      3 O2           0.7660    -0.0050     2.4890 os         1 MPB      -0.442100
      4 CM           0.6490    -0.0400     3.9230 c3         1 MPB       0.154900
      5 C1          -0.1490     0.0540     0.2540 ca         1 MPB      -0.187600
      6 C2          -1.2510     0.0800    -0.6310 ca         1 MPB      -0.012500
      7 C3          -1.0470     0.1140    -2.0220 ca         1 MPB      -0.198000
      8 C4           0.2540     0.1240    -2.5420 ca         1 MPB       0.172100
      9 C5           1.3540     0.0990    -1.6750 ca         1 MPB      -0.198000
     10 C6           1.1590     0.0640    -0.2830 ca         1 MPB      -0.012500
     11 O4           0.4580     0.1570    -3.8870 oh         1 MPB      -0.527100
     12 HM1          1.6440    -0.0550     4.3870 h1         1 MPB       0.048033
     13 HM2          0.1140     0.8430     4.2950 h1         1 MPB       0.048033
     14 HM3          0.1090    -0.9380     4.2500 h1         1 MPB       0.048033
     15 H2          -2.2680     0.0730    -0.2430 ha         1 MPB       0.133500
     16 H3          -1.9080     0.1330    -2.6870 ha         1 MPB       0.126000
     17 H5           2.3620     0.1060    -2.0800 ha         1 MPB       0.126000
     18 H6           2.0310     0.0450     0.3680 ha         1 MPB       0.133500
     19 HO4         -0.4160     0.1710    -4.3310 ho         1 MPB       0.470000
@<TRIPOS>BOND
     1     1     2 2   
     2     1     3 1   
     3     1     5 1   
     4     3     4 1   
     5     4    12 1   
     6     4    13 1   
     7     4    14 1   
     8     5     6 ar  
     9     5    10 ar  
    10     6     7 ar  
    11     6    15 1   
    12     7     8 ar  
    13     7    16 1   
    14     8     9 ar  
    15     8    11 1   
    16     9    10 ar  
    17     9    17 1   
    18    10    18 1   
    19    11    19 1   
@<TRIPOS>SUBSTRUCTURE
     1 MPB         1 TEMP              0 ****  ****    0 ROOT
