@<TRIPOS>MOLECULE
MPB
   19    19     1     0     0
SMALL
abcg2


@<TRIPOS>ATOM
      1 C           -0.3820     0.0160     1.7260 c          1 MPB       0.612700
      2 O1          -1.4840     0.0080     2.2240 o          1 MPB      -0.496000
      3 O2           0.7360    -0.0070     2.4370 os         1 MPB      -0.442100
      4 CM           0.6160    -0.0380     3.8580 c3         1 MPB       0.154900
      5 C1          -0.1330     0.0520     0.2710 ca         1 MPB      -0.187600
      6 C2          -1.2260     0.0780    -0.5940 ca         1 MPB      -0.012500
      7 C3          -1.0510     0.1130    -1.9640 ca         1 MPB      -0.198000
      8 C4           0.2370     0.1230    -2.5000 ca         1 MPB       0.172100
      9 C5           1.3400     0.0980    -1.6440 ca         1 MPB      -0.198000
     10 C6           1.1530     0.0630    -0.2770 ca         1 MPB      -0.012500
     11 O4           0.4730     0.1550    -3.8180 oh         1 MPB      -0.527100
     12 HM1          1.6320    -0.0480     4.2420 h1         1 MPB       0.048033
     13 HM2          0.0970     0.8440     4.2330 h1         1 MPB       0.048033
     14 HM3          0.0940    -0.9330     4.1950 h1         1 MPB       0.048033
     15 H2          -2.2320     0.0710    -0.1940 ha         1 MPB       0.133500
     16 H3          -1.9150     0.1310    -2.6170 ha         1 MPB       0.126000
     17 H5           2.3400     0.1050    -2.0580 ha         1 MPB       0.126000
     18 H6           2.0240     0.0430     0.3630 ha         1 MPB       0.133500
     19 HO4         -0.3530     0.1760    -4.3140 ho         1 MPB       0.470000
@<TRIPOS>BOND
     1     1     2 2   
     2     1     3 1   
     3     1     5 1   
     4     3     4 1   
     5     4    12 1   
     6     4    13 1   
     7     4    14 1   
     8     5     6 ar  
     9     5    10 ar  
    10     6     7 ar  
    11     6    15 1   
    12     7     8 ar  
    13     7    16 1   
    14     8     9 ar  
    15     8    11 1   
    16     9    10 ar  
    17     9    17 1   
    18    10    18 1   
    19    11    19 1   
@<TRIPOS>SUBSTRUCTURE
     1 MPB         1 TEMP              0 ****  ****    0 ROOT
