@<TRIPOS>MOLECULE
MPC
   52    52     1     0     0
SMALL
No Charge or Current Charge


@<TRIPOS>ATOM
      1 C1          -3.1390    -4.6120     3.4900 c3         1 MPC      -0.424400
      2 C2          -1.5980    -4.5860     3.3560 c3         1 MPC      -0.036400
      3 C3          -0.9030    -5.6630     4.2160 c3         1 MPC      -0.074400
      4 C4           0.6360    -5.6440     4.0820 c3         1 MPC      -0.077400
      5 C5           1.3320    -6.7220     4.9410 c3         1 MPC      -0.076400
      6 C6           2.8660    -6.7040     4.8070 c3         1 MPC      -0.086100
      7 C7          -4.2000    -3.3760    -0.1670 c6         1 MPC       0.242300
      8 C8          -4.0760    -1.8360    -0.3650 c6         1 MPC      -0.107400
      9 C9          -4.7510    -1.3650    -1.6800 c6         1 MPC      -0.061700
     10 C10         -4.1740    -2.1350    -2.8930 c6         1 MPC      -0.069400
     11 C11         -4.3220    -3.6630    -2.7110 c6         1 MPC      -0.071400
     12 C12         -3.6330    -4.1540    -1.4010 c6         1 MPC      -0.055700
     13 C13         -4.6180     0.1690    -1.8670 c3         1 MPC      -0.081100
     14 C14         -3.6850    -5.7200    -1.2250 c3         1 MPC      -0.051700
     15 C15         -5.1100    -6.3040    -1.0530 c3         1 MPC      -0.088600
     16 C16         -2.9230    -6.4860    -2.3350 c3         1 MPC      -0.088600
     17 O1          -3.5350    -3.8220     1.0290 os         1 MPC      -0.610400
     18 O2          -3.5450    -1.9810     2.8520 o          1 MPC      -0.832000
     19 P1          -4.0260    -3.3490     2.4910 p5         1 MPC       1.402400
     20 H11         -3.5270    -5.5890     3.1800 hc         1 MPC       0.043200
     21 H12A        -3.4290    -4.4520     4.5330 hc         1 MPC       0.043200
     22 H21         -1.2250    -3.5960     3.6470 hc         1 MPC       0.041200
     23 H22         -1.3200    -4.7350     2.3040 hc         1 MPC       0.041200
     24 H31         -1.1740    -5.5140     5.2690 hc         1 MPC       0.026200
     25 H32         -1.2770    -6.6530     3.9250 hc         1 MPC       0.026200
     26 H41          1.0110    -4.6550     4.3720 hc         1 MPC       0.034200
     27 H42          0.9070    -5.7930     3.0290 hc         1 MPC       0.034200
     28 H51          1.0650    -6.5750     5.9950 hc         1 MPC       0.031700
     29 H52          0.9610    -7.7130     4.6520 hc         1 MPC       0.031700
     30 H61          3.3140    -7.4850     5.4330 hc         1 MPC       0.023700
     31 H62          3.1670    -6.8840     3.7670 hc         1 MPC       0.023700
     32 H63          3.2720    -5.7360     5.1230 hc         1 MPC       0.023700
     33 H7          -5.2690    -3.6140    -0.0720 h1         1 MPC       0.042700
     34 H81         -3.0140    -1.5520    -0.3660 hc         1 MPC       0.058700
     35 H82         -4.5450    -1.3060     0.4730 hc         1 MPC       0.058700
     36 H9          -5.8280    -1.5740    -1.6140 hc         1 MPC       0.043700
     37 H101        -3.1140    -1.8810    -3.0300 hc         1 MPC       0.023700
     38 H102        -4.6900    -1.8260    -3.8130 hc         1 MPC       0.023700
     39 H111        -5.3890    -3.9230    -2.7010 hc         1 MPC       0.029700
     40 H112        -3.8870    -4.1630    -3.5860 hc         1 MPC       0.029700
     41 H12         -2.5650    -3.9030    -1.4770 hc         1 MPC       0.042700
     42 H131        -3.5670     0.4730    -1.9440 hc         1 MPC       0.024367
     43 H132        -5.1290     0.5020    -2.7790 hc         1 MPC       0.024367
     44 H133        -5.0630     0.7110    -1.0240 hc         1 MPC       0.024367
     45 H14         -3.1490    -5.9590    -0.2970 hc         1 MPC       0.068700
     46 H151        -5.7180    -6.1420    -1.9510 hc         1 MPC       0.026700
     47 H152        -5.0620    -7.3840    -0.8700 hc         1 MPC       0.026700
     48 H153        -5.6260    -5.8500    -0.1990 hc         1 MPC       0.026700
     49 H161        -3.4460    -6.4210    -3.2960 hc         1 MPC       0.026700
     50 H162        -2.8310    -7.5470    -2.0750 hc         1 MPC       0.026700
     51 H163        -1.9120    -6.0820    -2.4620 hc         1 MPC       0.026700
     52 O3          -5.4980    -3.5280     2.6750 o          1 MPC      -0.832000
@<TRIPOS>BOND
     1     1     2 1   
     2     1    19 1   
     3     1    20 1   
     4     1    21 1   
     5     2     3 1   
     6     2    22 1   
     7     2    23 1   
     8     3     4 1   
     9     3    24 1   
    10     3    25 1   
    11     4     5 1   
    12     4    26 1   
    13     4    27 1   
    14     5     6 1   
    15     5    28 1   
    16     5    29 1   
    17     6    30 1   
    18     6    31 1   
    19     6    32 1   
    20     7     8 1   
    21     7    12 1   
    22     7    17 1   
    23     7    33 1   
    24     8     9 1   
    25     8    34 1   
    26     8    35 1   
    27     9    10 1   
    28     9    13 1   
    29     9    36 1   
    30    10    11 1   
    31    10    37 1   
    32    10    38 1   
    33    11    12 1   
    34    11    39 1   
    35    11    40 1   
    36    12    14 1   
    37    12    41 1   
    38    13    42 1   
    39    13    43 1   
    40    13    44 1   
    41    14    15 1   
    42    14    16 1   
    43    14    45 1   
    44    15    46 1   
    45    15    47 1   
    46    15    48 1   
    47    16    49 1   
    48    16    50 1   
    49    16    51 1   
    50    17    19 1   
    51    18    19 1   
    52    19    52 1   
@<TRIPOS>SUBSTRUCTURE
     1 MPC         1 TEMP              0 ****  ****    0 ROOT
