@<TRIPOS>MOLECULE
MPC
   52    52     1     0     0
SMALL
abcg2


@<TRIPOS>ATOM
      1 C1          -3.1540    -5.0820     3.2800 c3         1 MPC      -0.424400
      2 C2          -1.6550    -4.8010     3.2690 c3         1 MPC      -0.036400
      3 C3          -0.8630    -5.7500     4.1600 c3         1 MPC      -0.074400
      4 C4           0.6410    -5.5060     4.1080 c3         1 MPC      -0.077400
      5 C5           1.4330    -6.4100     5.0450 c3         1 MPC      -0.076400
      6 C6           2.9350    -6.1690     4.9750 c3         1 MPC      -0.086100
      7 C7          -4.1300    -3.4000    -0.2040 c6         1 MPC       0.242300
      8 C8          -3.8210    -1.9150    -0.3690 c6         1 MPC      -0.107400
      9 C9          -4.4860    -1.3260    -1.6090 c6         1 MPC      -0.061700
     10 C10         -4.0790    -2.1260    -2.8410 c6         1 MPC      -0.069400
     11 C11         -4.3720    -3.6140    -2.6770 c6         1 MPC      -0.071400
     12 C12         -3.6970    -4.2010    -1.4340 c6         1 MPC      -0.055700
     13 C13         -4.1660     0.1540    -1.7660 c3         1 MPC      -0.081100
     14 C14         -3.9180    -5.7170    -1.2670 c3         1 MPC      -0.051700
     15 C15         -5.3700    -6.0930    -0.9770 c3         1 MPC      -0.088600
     16 C16         -3.3860    -6.5000    -2.4650 c3         1 MPC      -0.088600
     17 O1          -3.4750    -3.9250     0.9370 os         1 MPC      -0.610400
     18 O2          -3.9050    -2.4710     3.0280 o          1 MPC      -0.832000
     19 P1          -4.1780    -3.8310     2.4320 p5         1 MPC       1.402400
     20 H11         -3.3570    -6.0670     2.8490 hc         1 MPC       0.043200
     21 H12A        -3.5130    -5.1230     4.3140 hc         1 MPC       0.043200
     22 H21         -1.4750    -3.7710     3.5920 hc         1 MPC       0.041200
     23 H22         -1.2830    -4.8680     2.2430 hc         1 MPC       0.041200
     24 H31         -1.2110    -5.6470     5.1940 hc         1 MPC       0.026200
     25 H32         -1.0730    -6.7850     3.8720 hc         1 MPC       0.026200
     26 H41          0.8480    -4.4600     4.3570 hc         1 MPC       0.034200
     27 H42          0.9940    -5.6480     3.0810 hc         1 MPC       0.034200
     28 H51          1.0870    -6.2570     6.0720 hc         1 MPC       0.031700
     29 H52          1.2190    -7.4570     4.8060 hc         1 MPC       0.031700
     30 H61          3.4780    -6.8190     5.6620 hc         1 MPC       0.023700
     31 H62          3.3200    -6.3540     3.9700 hc         1 MPC       0.023700
     32 H63          3.1810    -5.1370     5.2350 hc         1 MPC       0.023700
     33 H7          -5.2170    -3.5100    -0.0910 h1         1 MPC       0.042700
     34 H81         -2.7350    -1.7790    -0.4400 hc         1 MPC       0.058700
     35 H82         -4.1480    -1.3790     0.5260 hc         1 MPC       0.058700
     36 H9          -5.5730    -1.4290    -1.4890 hc         1 MPC       0.043700
     37 H101        -3.0060    -1.9850    -3.0190 hc         1 MPC       0.023700
     38 H102        -4.5920    -1.7390    -3.7270 hc         1 MPC       0.023700
     39 H111        -5.4560    -3.7610    -2.6190 hc         1 MPC       0.029700
     40 H112        -4.0380    -4.1470    -3.5700 hc         1 MPC       0.029700
     41 H12         -2.6140    -4.0520    -1.5530 hc         1 MPC       0.042700
     42 H131        -3.0940     0.3080    -1.9070 hc         1 MPC       0.024367
     43 H132        -4.6770     0.5800    -2.6320 hc         1 MPC       0.024367
     44 H133        -4.4700     0.7250    -0.8870 hc         1 MPC       0.024367
     45 H14         -3.3290    -6.0230    -0.3980 hc         1 MPC       0.068700
     46 H151        -6.0380    -5.7880    -1.7850 hc         1 MPC       0.026700
     47 H152        -5.4680    -7.1750    -0.8690 hc         1 MPC       0.026700
     48 H153        -5.7240    -5.6380    -0.0510 hc         1 MPC       0.026700
     49 H161        -4.0010    -6.3590    -3.3560 hc         1 MPC       0.026700
     50 H162        -3.3740    -7.5700    -2.2500 hc         1 MPC       0.026700
     51 H163        -2.3650    -6.2030    -2.7160 hc         1 MPC       0.026700
     52 O3          -5.6100    -4.3030     2.3480 o          1 MPC      -0.832000
@<TRIPOS>BOND
     1     1     2 1   
     2     1    19 1   
     3     1    20 1   
     4     1    21 1   
     5     2     3 1   
     6     2    22 1   
     7     2    23 1   
     8     3     4 1   
     9     3    24 1   
    10     3    25 1   
    11     4     5 1   
    12     4    26 1   
    13     4    27 1   
    14     5     6 1   
    15     5    28 1   
    16     5    29 1   
    17     6    30 1   
    18     6    31 1   
    19     6    32 1   
    20     7     8 1   
    21     7    12 1   
    22     7    17 1   
    23     7    33 1   
    24     8     9 1   
    25     8    34 1   
    26     8    35 1   
    27     9    10 1   
    28     9    13 1   
    29     9    36 1   
    30    10    11 1   
    31    10    37 1   
    32    10    38 1   
    33    11    12 1   
    34    11    39 1   
    35    11    40 1   
    36    12    14 1   
    37    12    41 1   
    38    13    42 1   
    39    13    43 1   
    40    13    44 1   
    41    14    15 1   
    42    14    16 1   
    43    14    45 1   
    44    15    46 1   
    45    15    47 1   
    46    15    48 1   
    47    16    49 1   
    48    16    50 1   
    49    16    51 1   
    50    17    19 1   
    51    18    19 1   
    52    19    52 1   
@<TRIPOS>SUBSTRUCTURE
     1 MPC         1 TEMP              0 ****  ****    0 ROOT
