@<TRIPOS>MOLECULE
MPD
   22    21     1     0     0
SMALL
abcg2


@<TRIPOS>ATOM
      1 C1          -2.5670    -3.3050     8.5400 c3         1 MPD      -0.100600
      2 C2          -2.9210    -4.0790     9.8050 c3         1 MPD       0.193000
      3 O2          -2.5100    -5.4210     9.5850 oh         1 MPD      -0.668000
      4 CM          -4.4350    -4.0240    10.0260 c3         1 MPD      -0.100600
      5 C3          -2.1580    -3.4630    10.9910 c3         1 MPD      -0.107400
      6 C4          -2.4720    -4.0330    12.3680 c3         1 MPD       0.172300
      7 O4          -2.2570    -5.4400    12.3220 oh         1 MPD      -0.678000
      8 C5          -1.6160    -3.3870    13.4460 c3         1 MPD      -0.126100
      9 H11         -2.9010    -2.2700     8.6140 hc         1 MPD       0.038700
     10 H12         -1.4880    -3.3000     8.3700 hc         1 MPD       0.038700
     11 H13         -3.0470    -3.7480     7.6650 hc         1 MPD       0.038700
     12 HO2         -2.4950    -5.8460    10.4540 ho         1 MPD       0.465000
     13 HM1         -4.7470    -4.6440    10.8690 hc         1 MPD       0.038700
     14 HM2         -4.7730    -3.0050    10.2200 hc         1 MPD       0.038700
     15 HM3         -4.9600    -4.3860     9.1400 hc         1 MPD       0.038700
     16 H31         -1.0820    -3.5560    10.7990 hc         1 MPD       0.056200
     17 H32         -2.3690    -2.3910    11.0280 hc         1 MPD       0.056200
     18 H4          -3.5250    -3.8290    12.6000 h1         1 MPD       0.029700
     19 HO4         -2.6220    -5.8370    13.1190 ho         1 MPD       0.447000
     20 H51         -1.8540    -3.7910    14.4320 hc         1 MPD       0.042367
     21 H52         -0.5540    -3.5530    13.2550 hc         1 MPD       0.042367
     22 H53         -1.7890    -2.3110    13.4820 hc         1 MPD       0.042367
@<TRIPOS>BOND
     1     1     2 1   
     2     1     9 1   
     3     1    10 1   
     4     1    11 1   
     5     2     3 1   
     6     2     4 1   
     7     2     5 1   
     8     3    12 1   
     9     4    13 1   
    10     4    14 1   
    11     4    15 1   
    12     5     6 1   
    13     5    16 1   
    14     5    17 1   
    15     6     7 1   
    16     6     8 1   
    17     6    18 1   
    18     7    19 1   
    19     8    20 1   
    20     8    21 1   
    21     8    22 1   
@<TRIPOS>SUBSTRUCTURE
     1 MPD         1 TEMP              0 ****  ****    0 ROOT
