@<TRIPOS>MOLECULE
MPD
   22    21     1     0     0
SMALL
No Charge or Current Charge


@<TRIPOS>ATOM
      1 C1          -2.5440    -3.3630     8.4620 c3         1 MPD      -0.100600
      2 C2          -2.9850    -4.0390     9.7800 c3         1 MPD       0.193000
      3 O2          -2.6630    -5.4210     9.6910 oh         1 MPD      -0.668000
      4 CM          -4.5170    -3.9130     9.9620 c3         1 MPD      -0.100600
      5 C3          -2.1970    -3.4520    10.9870 c3         1 MPD      -0.107400
      6 C4          -2.4590    -4.1110    12.3690 c3         1 MPD       0.172300
      7 O4          -2.0950    -5.4950    12.3230 oh         1 MPD      -0.678000
      8 C5          -1.6570    -3.4340    13.4960 c3         1 MPD      -0.126100
      9 H11         -2.7690    -2.2900     8.4820 hc         1 MPD       0.038700
     10 H12         -1.4650    -3.4800     8.3010 hc         1 MPD       0.038700
     11 H13         -3.0630    -3.8020     7.6020 hc         1 MPD       0.038700
     12 HO2         -2.4060    -5.6600    10.6220 ho         1 MPD       0.465000
     13 HM1         -4.8680    -4.4830    10.8300 hc         1 MPD       0.038700
     14 HM2         -4.8050    -2.8640    10.1020 hc         1 MPD       0.038700
     15 HM3         -5.0460    -4.2940     9.0800 hc         1 MPD       0.038700
     16 H31         -1.1220    -3.5100    10.7730 hc         1 MPD       0.056200
     17 H32         -2.4310    -2.3830    11.0650 hc         1 MPD       0.056200
     18 H4          -3.5250    -4.0120    12.6140 h1         1 MPD       0.029700
     19 HO4         -2.1500    -5.8350    13.2450 ho         1 MPD       0.447000
     20 H51         -1.8780    -3.8990    14.4640 hc         1 MPD       0.042367
     21 H52         -0.5790    -3.5110    13.3120 hc         1 MPD       0.042367
     22 H53         -1.9170    -2.3710    13.5660 hc         1 MPD       0.042367
@<TRIPOS>BOND
     1     1     2 1   
     2     1     9 1   
     3     1    10 1   
     4     1    11 1   
     5     2     3 1   
     6     2     4 1   
     7     2     5 1   
     8     3    12 1   
     9     4    13 1   
    10     4    14 1   
    11     4    15 1   
    12     5     6 1   
    13     5    16 1   
    14     5    17 1   
    15     6     7 1   
    16     6     8 1   
    17     6    18 1   
    18     7    19 1   
    19     8    20 1   
    20     8    21 1   
    21     8    22 1   
@<TRIPOS>SUBSTRUCTURE
     1 MPD         1 TEMP              0 ****  ****    0 ROOT
