@<TRIPOS>MOLECULE
MPE
   31    32     1     0     0
SMALL
bcc


@<TRIPOS>ATOM
      1 O9           2.1250    -1.1330     0.1750 o          1 MPE      -0.820800
      2 C7           1.3890    -0.2650    -0.3330 c          1 MPE       0.950600
      3 O8           1.7390     0.7440    -0.9680 o          1 MPE      -0.820800
      4 C6          -0.1260    -0.4610    -0.0690 c3         1 MPE       0.054700
      5 N5          -0.9490     0.0830    -1.1330 n7         1 MPE      -0.517700
      6 O4          -0.6970    -0.6670    -2.2970 os         1 MPE      -0.263100
      7 C3          -0.4610     0.1970    -3.3840 c3         1 MPE       0.157400
      8 C2          -0.0300    -0.6760    -4.5490 c3         1 MPE       0.039700
      9 S1           0.2080     0.3950    -6.0050 sh         1 MPE      -0.429900
     10 C10         -0.4840     0.2420     1.2000 cc         1 MPE      -0.075400
     11 C11         -0.9740     1.5120     1.3360 cd         1 MPE      -0.122100
     12 N12         -1.1620     1.8000     2.6610 na         1 MPE      -0.189400
     13 C13         -0.7940     0.7260     3.4150 ca         1 MPE      -0.055200
     14 C15         -0.8050     0.5410     4.7980 ca         1 MPE      -0.169000
     15 C14         -0.3530    -0.2800     2.5260 ca         1 MPE      -0.082800
     16 C18          0.0980    -1.4990     3.0470 ca         1 MPE      -0.043000
     17 C17          0.0830    -1.6880     4.4150 ca         1 MPE      -0.191000
     18 C16         -0.3650    -0.6760     5.2820 ca         1 MPE      -0.123000
     19 H6          -0.3070    -1.5370     0.0720 h1         1 MPE       0.037700
     20 H5          -1.9210    -0.1130    -0.9050 hn         1 MPE       0.305800
     21 H31         -1.3700     0.7510    -3.6520 h1         1 MPE       0.051700
     22 H32          0.3190     0.9210    -3.1390 h1         1 MPE       0.051700
     23 H21          0.9050    -1.1860    -4.3150 h1         1 MPE       0.064200
     24 H22         -0.7910    -1.4240    -4.7700 h1         1 MPE       0.064200
     25 H1           0.5650    -0.5660    -6.8620 hs         1 MPE       0.195800
     26 H11         -1.2120     2.2410     0.5790 h4         1 MPE       0.169000
     27 H12         -1.5320     2.6660     3.0140 hn         1 MPE       0.279700
     28 H15         -1.1440     1.3210     5.4680 ha         1 MPE       0.111000
     29 H18          0.4640    -2.2740     2.3850 ha         1 MPE       0.154000
     30 H17          0.4290    -2.6250     4.8310 ha         1 MPE       0.113000
     31 H16         -0.3620    -0.8530     6.3500 ha         1 MPE       0.106000
@<TRIPOS>BOND
     1     1     2 1   
     2     2     3 1   
     3     2     4 1   
     4     4     5 1   
     5     4    10 1   
     6     4    19 1   
     7     5     6 1   
     8     5    20 1   
     9     6     7 1   
    10     7     8 1   
    11     7    21 1   
    12     7    22 1   
    13     8     9 1   
    14     8    23 1   
    15     8    24 1   
    16     9    25 1   
    17    10    11 2   
    18    10    15 1   
    19    11    12 1   
    20    11    26 1   
    21    12    13 1   
    22    12    27 1   
    23    13    14 ar  
    24    13    15 ar  
    25    14    18 ar  
    26    14    28 1   
    27    15    16 ar  
    28    16    17 ar  
    29    16    29 1   
    30    17    18 ar  
    31    17    30 1   
    32    18    31 1   
@<TRIPOS>SUBSTRUCTURE
     1 MPE         1 TEMP              0 ****  ****    0 ROOT
