@<TRIPOS>MOLECULE
MPE
   31    32     1     0     0
SMALL
No Charge or Current Charge


@<TRIPOS>ATOM
      1 O9           2.5030    -1.1440    -0.0250 o          1 MPE      -0.715500
      2 C7           1.8390    -0.1140    -0.0730 c          1 MPE       0.740000
      3 O8           2.3490     0.9980    -0.1770 o          1 MPE      -0.715500
      4 C6           0.2730    -0.2330     0.0510 c3         1 MPE       0.054700
      5 N5          -0.4770     0.2770    -1.1380 n7         1 MPE      -0.572900
      6 O4          -0.1920    -0.4900    -2.3350 os         1 MPE      -0.286300
      7 C3          -0.5510     0.1760    -3.5640 c3         1 MPE       0.180600
      8 C2          -0.1770    -0.7540    -4.7360 c3         1 MPE       0.087600
      9 S1          -0.5750    -0.0560    -6.4130 sh         1 MPE      -0.477800
     10 C10         -0.2690     0.4080     1.3100 cc         1 MPE      -0.075400
     11 C11         -0.7890     1.6920     1.4660 cd         1 MPE      -0.172100
     12 N12         -1.1820     1.8910     2.8130 na         1 MPE      -0.239700
     13 C13         -0.8860     0.7120     3.4710 ca         1 MPE      -0.055200
     14 C15         -1.0840     0.4140     4.8260 ca         1 MPE      -0.151000
     15 C14         -0.3380    -0.1990     2.6110 ca         1 MPE      -0.082800
     16 C18          0.0570    -1.4760     3.0400 ca         1 MPE      -0.025000
     17 C17         -0.1320    -1.8030     4.4000 ca         1 MPE      -0.173000
     18 C16         -0.7010    -0.8630     5.2900 ca         1 MPE      -0.105000
     19 H6           0.0610    -1.3070     0.1370 h1         1 MPE       0.037700
     20 H5          -1.4770     0.1170    -0.9600 hn         1 MPE       0.361000
     21 H31         -1.6280     0.3860    -3.5940 h1         1 MPE       0.051700
     22 H32         -0.0080     1.1250    -3.6640 h1         1 MPE       0.051700
     23 H21          0.8990    -0.9640    -4.6960 h1         1 MPE       0.064200
     24 H22         -0.7140    -1.7050    -4.6230 h1         1 MPE       0.064200
     25 H1          -0.1190    -1.1160    -7.1260 hs         1 MPE       0.195800
     26 H11         -0.9020     2.4710     0.7170 h4         1 MPE       0.219000
     27 H12         -1.5920     2.7280     3.2160 hn         1 MPE       0.330000
     28 H15         -1.5200     1.1440     5.5020 ha         1 MPE       0.093000
     29 H18          0.4960    -2.1910     2.3480 ha         1 MPE       0.136000
     30 H17          0.1630    -2.7850     4.7640 ha         1 MPE       0.095000
     31 H16         -0.8420    -1.1230     6.3360 ha         1 MPE       0.088000
@<TRIPOS>BOND
     1     1     2 1   
     2     2     3 1   
     3     2     4 1   
     4     4     5 1   
     5     4    10 1   
     6     4    19 1   
     7     5     6 1   
     8     5    20 1   
     9     6     7 1   
    10     7     8 1   
    11     7    21 1   
    12     7    22 1   
    13     8     9 1   
    14     8    23 1   
    15     8    24 1   
    16     9    25 1   
    17    10    11 2   
    18    10    15 1   
    19    11    12 1   
    20    11    26 1   
    21    12    13 1   
    22    12    27 1   
    23    13    14 ar  
    24    13    15 ar  
    25    14    18 ar  
    26    14    28 1   
    27    15    16 ar  
    28    16    17 ar  
    29    16    29 1   
    30    17    18 ar  
    31    17    30 1   
    32    18    31 1   
@<TRIPOS>SUBSTRUCTURE
     1 MPE         1 TEMP              0 ****  ****    0 ROOT
