@<TRIPOS>MOLECULE
MPG
   65    64     1     0     0
SMALL
No Charge or Current Charge


@<TRIPOS>ATOM
      1 C2           4.1470    -0.2970    -0.2940 c3         1 MPG      -0.084400
      2 C3           3.0850    -1.2880     0.2340 c3         1 MPG      -0.075400
      3 C4           1.7720    -1.2550    -0.5780 c3         1 MPG      -0.074400
      4 C5           0.7110    -2.2460    -0.0500 c3         1 MPG      -0.074400
      5 C6          -0.6030    -2.2140    -0.8620 c3         1 MPG      -0.075400
      6 C7          -1.6640    -3.2040    -0.3330 c3         1 MPG      -0.072400
      7 C8          -2.9780    -3.1710    -1.1400 c3         1 MPG      -0.043200
      8 C9          -4.0070    -4.1440    -0.5950 c2         1 MPG      -0.217200
      9 C10         -5.0110    -3.8630     0.2550 c2         1 MPG      -0.214200
     10 C11         -5.3150    -2.5180     0.8890 c3         1 MPG      -0.044200
     11 C12         -6.3960    -1.7400     0.1120 c3         1 MPG      -0.072400
     12 C13         -6.7160    -0.3620     0.7320 c3         1 MPG      -0.075400
     13 C14         -7.7970     0.4160    -0.0500 c3         1 MPG      -0.074400
     14 C15         -8.1160     1.7940     0.5690 c3         1 MPG      -0.074400
     15 C16         -9.1960     2.5730    -0.2140 c3         1 MPG      -0.075400
     16 C17         -9.5150     3.9520     0.4050 c3         1 MPG      -0.074400
     17 C18        -10.5930     4.7290    -0.3750 c3         1 MPG      -0.088100
     18 O1           6.3520     0.6280    -0.0720 os         1 MPG      -0.448100
     19 C1           5.4560    -0.3310     0.5160 c3         1 MPG       0.165600
     20 CXD          8.4430     1.8480    -0.2560 c3         1 MPG       0.118300
     21 O2           9.8650     1.7400     0.0500 oh         1 MPG      -0.618000
     22 C21          7.9130     3.2730     0.0650 c3         1 MPG       0.132600
     23 O3           8.5620     4.2670    -0.7470 oh         1 MPG      -0.644000
     24 O4           7.9930     0.1440     1.4600 o          1 MPG      -0.482000
     25 CX3          7.5950     0.7800     0.4900 c          1 MPG       0.556100
     26 H21C         4.3700    -0.5300    -1.3430 hc         1 MPG       0.054200
     27 H22C         3.7370     0.7200    -0.2680 hc         1 MPG       0.054200
     28 H31C         3.4980    -2.3040     0.2100 hc         1 MPG       0.041200
     29 H32C         2.8660    -1.0550     1.2840 hc         1 MPG       0.041200
     30 H41C         1.3590    -0.2390    -0.5540 hc         1 MPG       0.039700
     31 H42C         1.9910    -1.4880    -1.6280 hc         1 MPG       0.039700
     32 H51C         1.1240    -3.2620    -0.0740 hc         1 MPG       0.038700
     33 H52C         0.4920    -2.0140     1.0000 hc         1 MPG       0.038700
     34 H61C        -1.0150    -1.1970    -0.8380 hc         1 MPG       0.037700
     35 H62C        -0.3840    -2.4460    -1.9110 hc         1 MPG       0.037700
     36 H71C        -1.2540    -4.2210    -0.3570 hc         1 MPG       0.040200
     37 H72C        -1.8830    -2.9710     0.7160 hc         1 MPG       0.040200
     38 H81C        -3.3730    -2.1480    -1.1380 hc         1 MPG       0.043700
     39 H82C        -2.7660    -3.4090    -2.1900 hc         1 MPG       0.043700
     40 H9          -3.8920    -5.1620    -0.9730 ha         1 MPG       0.165000
     41 H10         -5.6940    -4.6580     0.5620 ha         1 MPG       0.165000
     42 H111        -5.6480    -2.6670     1.9240 hc         1 MPG       0.044200
     43 H112        -4.4080    -1.9050     0.9500 hc         1 MPG       0.044200
     44 H121        -6.0610    -1.6010    -0.9240 hc         1 MPG       0.039700
     45 H122        -7.3130    -2.3420     0.0730 hc         1 MPG       0.039700
     46 H131        -7.0520    -0.5020     1.7670 hc         1 MPG       0.036700
     47 H132        -5.7980     0.2370     0.7700 hc         1 MPG       0.036700
     48 H141        -7.4620     0.5550    -1.0860 hc         1 MPG       0.037700
     49 H142        -8.7160    -0.1830    -0.0890 hc         1 MPG       0.037700
     50 H151        -8.4510     1.6550     1.6040 hc         1 MPG       0.036700
     51 H152        -7.1970     2.3930     0.6070 hc         1 MPG       0.036700
     52 H161        -8.8610     2.7120    -1.2490 hc         1 MPG       0.036700
     53 H162       -10.1150     1.9740    -0.2520 hc         1 MPG       0.036700
     54 H171        -9.8530     3.8170     1.4400 hc         1 MPG       0.036200
     55 H172        -8.5990     4.5540     0.4430 hc         1 MPG       0.036200
     56 H181       -10.7850     5.6980     0.1000 hc         1 MPG       0.031367
     57 H182       -10.2690     4.9110    -1.4070 hc         1 MPG       0.031367
     58 H183       -11.5340     4.1670    -0.4010 hc         1 MPG       0.031367
     59 HX31         5.2470    -0.0790     1.5640 h1         1 MPG       0.050700
     60 HX32         5.8860    -1.3410     0.4790 h1         1 MPG       0.050700
     61 HXD          8.2730     1.6660    -1.3250 h1         1 MPG       0.111700
     62 H2           9.9430     1.6130     1.0220 ho         1 MPG       0.455000
     63 H211         6.8290     3.2980    -0.1150 h1         1 MPG       0.030200
     64 H212         8.0710     3.4860     1.1310 h1         1 MPG       0.030200
     65 H3           8.2110     5.1440    -0.4700 ho         1 MPG       0.447000
@<TRIPOS>BOND
     1     1     2 1   
     2     1    19 1   
     3     1    26 1   
     4     1    27 1   
     5     2     3 1   
     6     2    28 1   
     7     2    29 1   
     8     3     4 1   
     9     3    30 1   
    10     3    31 1   
    11     4     5 1   
    12     4    32 1   
    13     4    33 1   
    14     5     6 1   
    15     5    34 1   
    16     5    35 1   
    17     6     7 1   
    18     6    36 1   
    19     6    37 1   
    20     7     8 1   
    21     7    38 1   
    22     7    39 1   
    23     8     9 2   
    24     8    40 1   
    25     9    10 1   
    26     9    41 1   
    27    10    11 1   
    28    10    42 1   
    29    10    43 1   
    30    11    12 1   
    31    11    44 1   
    32    11    45 1   
    33    12    13 1   
    34    12    46 1   
    35    12    47 1   
    36    13    14 1   
    37    13    48 1   
    38    13    49 1   
    39    14    15 1   
    40    14    50 1   
    41    14    51 1   
    42    15    16 1   
    43    15    52 1   
    44    15    53 1   
    45    16    17 1   
    46    16    54 1   
    47    16    55 1   
    48    17    56 1   
    49    17    57 1   
    50    17    58 1   
    51    18    19 1   
    52    18    25 1   
    53    19    59 1   
    54    19    60 1   
    55    20    21 1   
    56    20    22 1   
    57    20    25 1   
    58    20    61 1   
    59    21    62 1   
    60    22    23 1   
    61    22    63 1   
    62    22    64 1   
    63    23    65 1   
    64    24    25 2   
@<TRIPOS>SUBSTRUCTURE
     1 MPG         1 TEMP              0 ****  ****    0 ROOT
