@<TRIPOS>MOLECULE
MPG
   65    64     1     0     0
SMALL
bcc


@<TRIPOS>ATOM
      1 C2           4.5770    -0.4000    -0.3690 c3         1 MPG      -0.084400
      2 C3           3.4850    -1.3300     0.1500 c3         1 MPG      -0.075400
      3 C4           2.1760    -1.1880    -0.6160 c3         1 MPG      -0.074400
      4 C5           1.0680    -2.0820    -0.0710 c3         1 MPG      -0.074400
      5 C6          -0.2390    -1.9560    -0.8430 c3         1 MPG      -0.075400
      6 C7          -1.3590    -2.8120    -0.2670 c3         1 MPG      -0.072400
      7 C8          -2.6730    -2.6710    -1.0390 c3         1 MPG      -0.043200
      8 C9          -3.7520    -3.5490    -0.4850 c2         1 MPG      -0.167200
      9 C10         -4.8160    -3.1700     0.2220 c2         1 MPG      -0.164200
     10 C11         -5.2060    -1.7760     0.6050 c3         1 MPG      -0.044200
     11 C12         -6.5760    -1.3750     0.0560 c3         1 MPG      -0.072400
     12 C13         -6.9840     0.0320     0.4720 c3         1 MPG      -0.075400
     13 C14         -8.3720     0.4320    -0.0150 c3         1 MPG      -0.074400
     14 C15         -8.7600     1.8510     0.3820 c3         1 MPG      -0.074400
     15 C16        -10.1590     2.2470    -0.0720 c3         1 MPG      -0.075400
     16 C17        -10.5370     3.6720     0.3140 c3         1 MPG      -0.074400
     17 C18        -11.9420     4.0580    -0.1280 c3         1 MPG      -0.088100
     18 O1           6.8360     0.3350    -0.1110 os         1 MPG      -0.424900
     19 C1           5.8660    -0.5980     0.3960 c3         1 MPG       0.142400
     20 CXD          8.9310     1.4100    -0.1840 c3         1 MPG       0.095100
     21 O2          10.2760     1.1690     0.0990 oh         1 MPG      -0.555800
     22 C21          8.4540     2.7820     0.2880 c3         1 MPG       0.109400
     23 O3           9.2240     3.7560    -0.3670 oh         1 MPG      -0.581800
     24 O4           8.4060    -0.4210     1.2910 o          1 MPG      -0.531000
     25 CX3          8.0440     0.3290     0.4200 c          1 MPG       0.605100
     26 H21C         4.7460    -0.5890    -1.4330 hc         1 MPG       0.054200
     27 H22C         4.2490     0.6390    -0.2740 hc         1 MPG       0.054200
     28 H31C         3.8280    -2.3680     0.0910 hc         1 MPG       0.041200
     29 H32C         3.3080    -1.1250     1.2110 hc         1 MPG       0.041200
     30 H41C         1.8470    -0.1430    -0.5830 hc         1 MPG       0.039700
     31 H42C         2.3460    -1.4210    -1.6720 hc         1 MPG       0.039700
     32 H51C         1.4010    -3.1250    -0.0890 hc         1 MPG       0.038700
     33 H52C         0.8930    -1.8360     0.9820 hc         1 MPG       0.038700
     34 H61C        -0.5550    -0.9060    -0.8520 hc         1 MPG       0.037700
     35 H62C        -0.0720    -2.2320    -1.8900 hc         1 MPG       0.037700
     36 H71C        -1.0510    -3.8630    -0.2600 hc         1 MPG       0.040200
     37 H72C        -1.5290    -2.5370     0.7790 hc         1 MPG       0.040200
     38 H81C        -2.9800    -1.6230    -1.0380 hc         1 MPG       0.043700
     39 H82C        -2.4960    -2.9390    -2.0860 hc         1 MPG       0.043700
     40 H9          -3.6190    -4.6130    -0.6630 ha         1 MPG       0.115000
     41 H10         -5.4960    -3.9470     0.5640 ha         1 MPG       0.115000
     42 H111        -5.2380    -1.7080     1.6990 hc         1 MPG       0.044200
     43 H112        -4.4560    -1.0520     0.2780 hc         1 MPG       0.044200
     44 H121        -6.5620    -1.4460    -1.0360 hc         1 MPG       0.039700
     45 H122        -7.3290    -2.0930     0.3990 hc         1 MPG       0.039700
     46 H131        -6.9500     0.1090     1.5650 hc         1 MPG       0.036700
     47 H132        -6.2460     0.7490     0.0960 hc         1 MPG       0.036700
     48 H141        -8.4170     0.3350    -1.1060 hc         1 MPG       0.037700
     49 H142        -9.1110    -0.2720     0.3820 hc         1 MPG       0.037700
     50 H151        -8.6910     1.9530     1.4710 hc         1 MPG       0.036700
     51 H152        -8.0300     2.5550    -0.0340 hc         1 MPG       0.036700
     52 H161       -10.2350     2.1350    -1.1590 hc         1 MPG       0.036700
     53 H162       -10.8890     1.5500     0.3540 hc         1 MPG       0.036700
     54 H171       -10.4510     3.7870     1.3990 hc         1 MPG       0.036200
     55 H172        -9.8130     4.3680    -0.1210 hc         1 MPG       0.036200
     56 H181       -12.1810     5.0850     0.1480 hc         1 MPG       0.031367
     57 H182       -12.0530     3.9740    -1.2110 hc         1 MPG       0.031367
     58 H183       -12.6920     3.4100     0.3300 hc         1 MPG       0.031367
     59 HX31         5.7150    -0.4220     1.4640 h1         1 MPG       0.050700
     60 HX32         6.2400    -1.6170     0.2700 h1         1 MPG       0.050700
     61 HXD          8.8260     1.3650    -1.2730 h1         1 MPG       0.111700
     62 H2          10.4000     1.1570     1.0550 ho         1 MPG       0.416000
     63 H211         7.3860     2.8870     0.0670 h1         1 MPG       0.030200
     64 H212         8.5640     2.8400     1.3810 h1         1 MPG       0.030200
     65 H3           8.9280     4.6210    -0.0670 ho         1 MPG       0.408000
@<TRIPOS>BOND
     1     1     2 1   
     2     1    19 1   
     3     1    26 1   
     4     1    27 1   
     5     2     3 1   
     6     2    28 1   
     7     2    29 1   
     8     3     4 1   
     9     3    30 1   
    10     3    31 1   
    11     4     5 1   
    12     4    32 1   
    13     4    33 1   
    14     5     6 1   
    15     5    34 1   
    16     5    35 1   
    17     6     7 1   
    18     6    36 1   
    19     6    37 1   
    20     7     8 1   
    21     7    38 1   
    22     7    39 1   
    23     8     9 2   
    24     8    40 1   
    25     9    10 1   
    26     9    41 1   
    27    10    11 1   
    28    10    42 1   
    29    10    43 1   
    30    11    12 1   
    31    11    44 1   
    32    11    45 1   
    33    12    13 1   
    34    12    46 1   
    35    12    47 1   
    36    13    14 1   
    37    13    48 1   
    38    13    49 1   
    39    14    15 1   
    40    14    50 1   
    41    14    51 1   
    42    15    16 1   
    43    15    52 1   
    44    15    53 1   
    45    16    17 1   
    46    16    54 1   
    47    16    55 1   
    48    17    56 1   
    49    17    57 1   
    50    17    58 1   
    51    18    19 1   
    52    18    25 1   
    53    19    59 1   
    54    19    60 1   
    55    20    21 1   
    56    20    22 1   
    57    20    25 1   
    58    20    61 1   
    59    21    62 1   
    60    22    23 1   
    61    22    63 1   
    62    22    64 1   
    63    23    65 1   
    64    24    25 2   
@<TRIPOS>SUBSTRUCTURE
     1 MPG         1 TEMP              0 ****  ****    0 ROOT
