@<TRIPOS>MOLECULE
MPH
   20    19     1     0     0
SMALL
No Charge or Current Charge


@<TRIPOS>ATOM
      1 N           -2.3560     0.3770    -1.7160 n8         1 MPH      -0.958200
      2 CA          -1.0310     0.5270    -0.9910 c3         1 MPH      -0.145500
      3 CB          -1.2080    -0.0310     0.4530 c3         1 MPH      -0.051400
      4 CG          -0.0520     0.2950     1.4270 c3         1 MPH       0.110600
      5 SD          -0.4860    -0.2280     3.1570 ss         1 MPH      -0.556000
      6 CE           1.0540     0.2970     4.0390 c3         1 MPH       0.057900
      7 P            0.6250    -0.0320    -1.8130 p5         1 MPH       1.297500
      8 H           -3.1270     0.6010    -1.0770 hn         1 MPH       0.352000
      9 HN2         -2.5030    -0.6110    -1.9540 hn         1 MPH       0.352000
     10 HA          -0.8830     1.6100    -0.8840 h1         1 MPH       0.022700
     11 HB1         -1.3400    -1.1200     0.4110 hc         1 MPH       0.009700
     12 HB2         -2.1330     0.3800     0.8790 hc         1 MPH       0.009700
     13 HG1          0.1470     1.3750     1.4160 h1         1 MPH       0.085200
     14 HG2          0.8620    -0.2290     1.1190 h1         1 MPH       0.085200
     15 HE1          0.9700     0.0570     5.1070 h1         1 MPH       0.037367
     16 HE2          1.9220    -0.2290     3.6200 h1         1 MPH       0.037367
     17 HE3          1.1990     1.3790     3.9250 h1         1 MPH       0.037367
     18 O1           0.8060    -1.5010    -1.6140 o          1 MPH      -0.928500
     19 O2           0.5740     0.2680    -3.2760 o          1 MPH      -0.928500
     20 O3           1.7620     0.7130    -1.1970 o          1 MPH      -0.928500
@<TRIPOS>BOND
     1     1     2 1   
     2     1     8 1   
     3     1     9 1   
     4     2     3 1   
     5     2     7 1   
     6     2    10 1   
     7     3     4 1   
     8     3    11 1   
     9     3    12 1   
    10     4     5 1   
    11     4    13 1   
    12     4    14 1   
    13     5     6 1   
    14     6    15 1   
    15     6    16 1   
    16     6    17 1   
    17     7    18 1   
    18     7    19 1   
    19     7    20 1   
@<TRIPOS>SUBSTRUCTURE
     1 MPH         1 TEMP              0 ****  ****    0 ROOT
