@<TRIPOS>MOLECULE
MPH
   20    19     1     0     0
SMALL
abcg2


@<TRIPOS>ATOM
      1 N           -2.1850     0.3750    -1.6910 n8         1 MPH      -0.958200
      2 CA          -0.9580     0.5460    -0.9130 c3         1 MPH      -0.145500
      3 CB          -1.0820    -0.0840     0.4830 c3         1 MPH      -0.051400
      4 CG          -0.0240     0.3780     1.4730 c3         1 MPH       0.110600
      5 SD          -0.3710    -0.3070     3.1210 ss         1 MPH      -0.556000
      6 CE           1.0080     0.3980     4.0480 c3         1 MPH       0.057900
      7 P            0.4610    -0.1520    -1.9220 p5         1 MPH       1.297500
      8 H           -2.9950     0.4960    -1.0920 hn         1 MPH       0.352000
      9 HN2         -2.2130    -0.5880    -2.0070 hn         1 MPH       0.352000
     10 HA          -0.7940     1.6240    -0.7740 h1         1 MPH       0.022700
     11 HB1         -1.0540    -1.1740     0.3850 hc         1 MPH       0.009700
     12 HB2         -2.0700     0.1660     0.8920 hc         1 MPH       0.009700
     13 HG1         -0.0250     1.4700     1.5460 h1         1 MPH       0.085200
     14 HG2          0.9620     0.0630     1.1360 h1         1 MPH       0.085200
     15 HE1          0.9060     0.0960     5.0890 h1         1 MPH       0.037367
     16 HE2          1.9640     0.0360     3.6720 h1         1 MPH       0.037367
     17 HE3          0.9950     1.4870     4.0020 h1         1 MPH       0.037367
     18 O1           0.0080    -1.5920    -2.2190 o          1 MPH      -0.928500
     19 O2           0.5570     0.7350    -3.1680 o          1 MPH      -0.928500
     20 O3           1.7120    -0.0740    -1.0310 o          1 MPH      -0.928500
@<TRIPOS>BOND
     1     1     2 1   
     2     1     8 1   
     3     1     9 1   
     4     2     3 1   
     5     2     7 1   
     6     2    10 1   
     7     3     4 1   
     8     3    11 1   
     9     3    12 1   
    10     4     5 1   
    11     4    13 1   
    12     4    14 1   
    13     5     6 1   
    14     6    15 1   
    15     6    16 1   
    16     6    17 1   
    17     7    18 1   
    18     7    19 1   
    19     7    20 1   
@<TRIPOS>SUBSTRUCTURE
     1 MPH         1 TEMP              0 ****  ****    0 ROOT
