@<TRIPOS>MOLECULE
MPI
   16    17     1     0     0
SMALL
abcg2


@<TRIPOS>ATOM
      1 N1           0.2420     0.6820     0.0050 na         1 MPI       0.116400
      2 C2           0.2590    -0.6780     0.0130 ca         1 MPI      -0.022200
      3 C3          -0.9280    -1.4140     0.0090 ca         1 MPI      -0.123000
      4 C4          -2.1020    -0.7130    -0.0020 ca         1 MPI      -0.006000
      5 C5          -2.0990     0.7000    -0.0100 ca         1 MPI      -0.109000
      6 C6          -0.9260     1.3830    -0.0070 ca         1 MPI      -0.024300
      7 N7           1.5450    -1.0480     0.0240 na         1 MPI      -0.183700
      8 C8           2.3420     0.0600     0.0230 cc         1 MPI      -0.113100
      9 C9           1.5440     1.1500     0.0120 cd         1 MPI      -0.208100
     10 H3          -0.8930    -2.4930     0.0160 ha         1 MPI       0.172000
     11 H4          -3.0430    -1.2440    -0.0050 ha         1 MPI       0.168000
     12 H5          -3.0270     1.2520    -0.0200 ha         1 MPI       0.176000
     13 H6          -0.8440     2.4580    -0.0140 h4         1 MPI       0.187000
     14 HN7          1.8680    -2.0050     0.0310 hn         1 MPI       0.412000
     15 H8           3.4160    -0.0100     0.0300 h4         1 MPI       0.278000
     16 H9           1.7750     2.2000     0.0060 h4         1 MPI       0.280000
@<TRIPOS>BOND
     1     1     2 1   
     2     1     6 2   
     3     1     9 1   
     4     2     3 ar  
     5     2     7 1   
     6     3     4 ar  
     7     3    10 1   
     8     4     5 ar  
     9     4    11 1   
    10     5     6 ar  
    11     5    12 1   
    12     6    13 1   
    13     7     8 1   
    14     7    14 1   
    15     8     9 2   
    16     8    15 1   
    17     9    16 1   
@<TRIPOS>SUBSTRUCTURE
     1 MPI         1 TEMP              0 ****  ****    0 ROOT
