@<TRIPOS>MOLECULE
MPI
   16    17     1     0     0
SMALL
No Charge or Current Charge


@<TRIPOS>ATOM
      1 N1           0.2640     0.6540    -0.4170 na         1 MPI       0.116400
      2 C2           0.2600    -0.7070    -0.2910 ca         1 MPI      -0.022200
      3 C3          -0.9150    -1.4340    -0.0580 ca         1 MPI      -0.123000
      4 C4          -2.1200    -0.7030     0.0630 ca         1 MPI      -0.006000
      5 C5          -2.0970     0.7160     0.0350 ca         1 MPI      -0.109000
      6 C6          -0.8750     1.4050    -0.1530 ca         1 MPI      -0.024300
      7 N7           1.5740    -1.0720    -0.1020 na         1 MPI      -0.183700
      8 C8           2.3510     0.0610     0.1430 cc         1 MPI      -0.113100
      9 C9           1.4850     1.1440     0.0260 cd         1 MPI      -0.208100
     10 H3          -0.8980    -2.5130     0.0850 ha         1 MPI       0.172000
     11 H4          -3.0580    -1.2270     0.2410 ha         1 MPI       0.168000
     12 H5          -3.0180     1.2770     0.1810 ha         1 MPI       0.176000
     13 H6          -0.8050     2.4930    -0.1680 h4         1 MPI       0.187000
     14 HN7          1.9120    -2.0310    -0.0780 hn         1 MPI       0.412000
     15 H8           3.4050     0.0130     0.4130 h4         1 MPI       0.278000
     16 H9           1.6660     2.2040     0.1890 h4         1 MPI       0.280000
@<TRIPOS>BOND
     1     1     2 1   
     2     1     6 2   
     3     1     9 1   
     4     2     3 ar  
     5     2     7 1   
     6     3     4 ar  
     7     3    10 1   
     8     4     5 ar  
     9     4    11 1   
    10     5     6 ar  
    11     5    12 1   
    12     6    13 1   
    13     7     8 1   
    14     7    14 1   
    15     8     9 2   
    16     8    15 1   
    17     9    16 1   
@<TRIPOS>SUBSTRUCTURE
     1 MPI         1 TEMP              0 ****  ****    0 ROOT
