@<TRIPOS>MOLECULE
MPJ
   20    19     1     0     0
SMALL
bcc


@<TRIPOS>ATOM
      1 N            1.1060     1.2830    -2.0710 n8         1 MPJ      -0.861800
      2 CA           1.7780     0.9300    -0.8270 c3         1 MPJ      -0.028700
      3 CB           1.1770    -0.3050    -0.1450 c3         1 MPJ      -0.068400
      4 CG           1.7090    -0.5760     1.2550 c3         1 MPJ       0.040700
      5 SD           0.7540    -1.9220     2.0140 ss         1 MPJ      -0.402200
      6 CE           1.6100    -2.0670     3.5970 c3         1 MPJ       0.003000
      7 P            3.5690     0.7220    -1.2340 p5         1 MPJ       1.097600
      8 H            1.2040     0.5160    -2.7260 hn         1 MPJ       0.322800
      9 HN2          0.1110     1.3850    -1.9060 hn         1 MPJ       0.322800
     10 HA           1.6940     1.7840    -0.1440 h1         1 MPJ       0.052700
     11 HB1          1.3400    -1.1800    -0.7830 hc         1 MPJ       0.035200
     12 HB2          0.0920    -0.1600    -0.0910 hc         1 MPJ       0.035200
     13 HG1          1.6190     0.3180     1.8770 h1         1 MPJ       0.076700
     14 HG2          2.7620    -0.8540     1.2270 h1         1 MPJ       0.076700
     15 HE1          1.5430    -1.1420     4.1690 h1         1 MPJ       0.050033
     16 HE2          2.6590    -2.3270     3.4560 h1         1 MPJ       0.050033
     17 HE3          1.1280    -2.8610     4.1650 h1         1 MPJ       0.050033
     18 HP           3.8110     1.9850    -1.8680 hp         1 MPJ      -0.198400
     19 O1           3.6760    -0.3750    -2.2730 o          1 MPJ      -0.828000
     20 O2           4.4110     0.6440     0.0230 o          1 MPJ      -0.828000
@<TRIPOS>BOND
     1     1     2 1   
     2     1     8 1   
     3     1     9 1   
     4     2     3 1   
     5     2     7 1   
     6     2    10 1   
     7     3     4 1   
     8     3    11 1   
     9     3    12 1   
    10     4     5 1   
    11     4    13 1   
    12     4    14 1   
    13     5     6 1   
    14     6    15 1   
    15     6    16 1   
    16     6    17 1   
    17     7    18 1   
    18     7    19 1   
    19     7    20 1   
@<TRIPOS>SUBSTRUCTURE
     1 MPJ         1 TEMP              0 ****  ****    0 ROOT
