@<TRIPOS>MOLECULE
MPJ
   20    19     1     0     0
SMALL
No Charge or Current Charge


@<TRIPOS>ATOM
      1 N            0.9130     1.3370    -2.0920 n8         1 MPJ      -0.972200
      2 CA           1.7920     0.9440    -0.9180 c3         1 MPJ      -0.186500
      3 CB           1.1270    -0.2700    -0.2010 c3         1 MPJ      -0.068400
      4 CG           1.7080    -0.6060     1.1920 c3         1 MPJ       0.088600
      5 SD           0.7150    -1.9440     2.0030 ss         1 MPJ      -0.498000
      6 CE           1.6350    -2.0970     3.6010 c3         1 MPJ       0.050900
      7 P            3.6900     0.7400    -1.1400 p5         1 MPJ       1.255400
      8 H            0.9450     0.6080    -2.8180 hn         1 MPJ       0.378000
      9 HN2         -0.0750     1.3530    -1.8060 hn         1 MPJ       0.378000
     10 HA           1.7500     1.7870    -0.2150 h1         1 MPJ       0.052700
     11 HB1          1.2040    -1.1590    -0.8390 hc         1 MPJ       0.035200
     12 HB2          0.0550    -0.0660    -0.0760 hc         1 MPJ       0.035200
     13 HG1          1.6900     0.2900     1.8270 h1         1 MPJ       0.076700
     14 HG2          2.7480    -0.9460     1.1010 h1         1 MPJ       0.076700
     15 HE1          1.6120    -1.1400     4.1390 h1         1 MPJ       0.050033
     16 HE2          2.6790    -2.3760     3.4060 h1         1 MPJ       0.050033
     17 HE3          1.1690    -2.8700     4.2260 h1         1 MPJ       0.050033
     18 HP           3.9510     1.8440    -2.0010 hp         1 MPJ      -0.198400
     19 O1           4.0260    -0.5470    -1.8320 o          1 MPJ      -0.828000
     20 O2           4.4200     0.9160     0.1580 o          1 MPJ      -0.828000
@<TRIPOS>BOND
     1     1     2 1   
     2     1     8 1   
     3     1     9 1   
     4     2     3 1   
     5     2     7 1   
     6     2    10 1   
     7     3     4 1   
     8     3    11 1   
     9     3    12 1   
    10     4     5 1   
    11     4    13 1   
    12     4    14 1   
    13     5     6 1   
    14     6    15 1   
    15     6    16 1   
    16     6    17 1   
    17     7    18 1   
    18     7    19 1   
    19     7    20 1   
@<TRIPOS>SUBSTRUCTURE
     1 MPJ         1 TEMP              0 ****  ****    0 ROOT
