@<TRIPOS>MOLECULE
MPK
   25    26     1     0     0
SMALL
No Charge or Current Charge


@<TRIPOS>ATOM
      1 C1           3.9510    -0.1490     0.1980 c3         1 MPK      -0.137400
      2 C2           2.4980    -0.4780     0.0130 cc         1 MPK       0.205300
      3 C3           1.3740     0.2600     0.2320 cd         1 MPK      -0.219300
      4 C4           1.3080     1.6620     0.7640 c3         1 MPK       0.241900
      5 O5           1.5590     2.5990    -0.2850 oh         1 MPK      -0.657000
      6 C6           0.2990    -0.6000    -0.1000 cd         1 MPK       0.349500
      7 N7           0.7080    -1.8020    -0.4750 nc         1 MPK      -0.362300
      8 O8           2.1420    -1.7310    -0.4180 os         1 MPK      -0.070700
      9 C9          -1.1440    -0.2950    -0.0170 ca         1 MPK      -0.143500
     10 C10         -1.6490     0.9430    -0.4720 ca         1 MPK      -0.080500
     11 C11         -3.0280     1.2110    -0.4310 ca         1 MPK      -0.119000
     12 C12         -3.9220     0.2390     0.0440 ca         1 MPK      -0.096000
     13 C13         -3.4350    -1.0080     0.4690 ca         1 MPK      -0.119000
     14 C14         -2.0560    -1.2780     0.4290 ca         1 MPK      -0.080500
     15 H1           4.1960    -0.0650     1.2630 hc         1 MPK       0.063367
     16 H2           4.5900    -0.9250    -0.2380 hc         1 MPK       0.063367
     17 H3           4.1960     0.8030    -0.2860 hc         1 MPK       0.063367
     18 H4           0.3240     1.8400     1.2160 h1         1 MPK       0.028200
     19 H5           2.0580     1.7730     1.5590 h1         1 MPK       0.028200
     20 H6           1.5370     3.4910     0.1260 ho         1 MPK       0.442000
     21 H7          -0.9760     1.6990    -0.8710 ha         1 MPK       0.129000
     22 H8          -3.4050     2.1710    -0.7780 ha         1 MPK       0.115000
     23 H9          -4.9900     0.4460     0.0730 ha         1 MPK       0.113000
     24 H10         -4.1270    -1.7680     0.8270 ha         1 MPK       0.115000
     25 H11         -1.6960    -2.2510     0.7580 ha         1 MPK       0.129000
@<TRIPOS>BOND
     1     1     2 1   
     2     1    15 1   
     3     1    16 1   
     4     1    17 1   
     5     2     3 2   
     6     2     8 1   
     7     3     4 1   
     8     3     6 1   
     9     4     5 1   
    10     4    18 1   
    11     4    19 1   
    12     5    20 1   
    13     6     7 2   
    14     6     9 1   
    15     7     8 1   
    16     9    10 ar  
    17     9    14 ar  
    18    10    11 ar  
    19    10    21 1   
    20    11    12 ar  
    21    11    22 1   
    22    12    13 ar  
    23    12    23 1   
    24    13    14 ar  
    25    13    24 1   
    26    14    25 1   
@<TRIPOS>SUBSTRUCTURE
     1 MPK         1 TEMP              0 ****  ****    0 ROOT
