@<TRIPOS>MOLECULE
MPK
   25    26     1     0     0
SMALL
bcc


@<TRIPOS>ATOM
      1 C1           3.9300    -0.2540     0.2960 c3         1 MPK      -0.137400
      2 C2           2.4780    -0.4830     0.1260 cc         1 MPK       0.315000
      3 C3           1.3900     0.3180     0.2670 cd         1 MPK      -0.349900
      4 C4           1.3640     1.7520     0.6590 c3         1 MPK       0.218700
      5 O5           1.3120     2.5520    -0.5060 oh         1 MPK      -0.594800
      6 C6           0.2990    -0.5530    -0.0350 cd         1 MPK       0.414800
      7 N7           0.7260    -1.7510    -0.3230 nc         1 MPK      -0.362300
      8 O8           2.0820    -1.7090    -0.2220 os         1 MPK      -0.115100
      9 C9          -1.1420    -0.2760    -0.0150 ca         1 MPK      -0.143500
     10 C10         -1.6400     0.9610    -0.4240 ca         1 MPK      -0.098500
     11 C11         -3.0060     1.2040    -0.4100 ca         1 MPK      -0.137000
     12 C12         -3.8890     0.2180     0.0100 ca         1 MPK      -0.114000
     13 C13         -3.3990    -1.0170     0.4160 ca         1 MPK      -0.137000
     14 C14         -2.0350    -1.2640     0.4050 ca         1 MPK      -0.098500
     15 H1           4.3430    -0.9030     1.0680 hc         1 MPK       0.063367
     16 H2           4.4700    -0.4530    -0.6310 hc         1 MPK       0.063367
     17 H3           4.1200     0.7770     0.5820 hc         1 MPK       0.063367
     18 H4           0.5000     1.9320     1.3090 h1         1 MPK       0.028200
     19 H5           2.2550     1.9790     1.2550 h1         1 MPK       0.028200
     20 H6           1.1910     3.4660    -0.2290 ho         1 MPK       0.403000
     21 H7          -0.9620     1.7290    -0.7720 ha         1 MPK       0.147000
     22 H8          -3.3800     2.1660    -0.7350 ha         1 MPK       0.133000
     23 H9          -4.9540     0.4110     0.0220 ha         1 MPK       0.131000
     24 H10         -4.0800    -1.7900     0.7480 ha         1 MPK       0.133000
     25 H11         -1.6600    -2.2230     0.7380 ha         1 MPK       0.147000
@<TRIPOS>BOND
     1     1     2 1   
     2     1    15 1   
     3     1    16 1   
     4     1    17 1   
     5     2     3 2   
     6     2     8 1   
     7     3     4 1   
     8     3     6 1   
     9     4     5 1   
    10     4    18 1   
    11     4    19 1   
    12     5    20 1   
    13     6     7 2   
    14     6     9 1   
    15     7     8 1   
    16     9    10 ar  
    17     9    14 ar  
    18    10    11 ar  
    19    10    21 1   
    20    11    12 ar  
    21    11    22 1   
    22    12    13 ar  
    23    12    23 1   
    24    13    14 ar  
    25    13    24 1   
    26    14    25 1   
@<TRIPOS>SUBSTRUCTURE
     1 MPK         1 TEMP              0 ****  ****    0 ROOT
