@<TRIPOS>MOLECULE
MPO
   27    27     1     0     0
SMALL
No Charge or Current Charge


@<TRIPOS>ATOM
      1 S1          -0.0010     0.1110     3.3040 s6         1 MPO       1.322600
      2 O1          -0.0230     1.5790     3.2230 o          1 MPO      -0.697867
      3 O2           1.3350    -0.4890     3.1830 o          1 MPO      -0.697867
      4 O4           0.5880    -0.0680    -4.7950 os         1 MPO      -0.464000
      5 N1          -0.4030     0.1240    -2.0590 n3         1 MPO      -0.715600
      6 C1          -0.8560    -0.4220     1.7990 c3         1 MPO      -0.358400
      7 O3          -0.8260    -0.4520     4.3820 o          1 MPO      -0.697867
      8 C2          -0.1740     0.0520     0.4880 c3         1 MPO      -0.032400
      9 C3          -0.9270    -0.4170    -0.7790 c3         1 MPO       0.167800
     10 C4          -1.3030    -0.1890    -3.2140 c6         1 MPO       0.129300
     11 C5          -0.7610     0.3970    -4.5530 c6         1 MPO       0.152600
     12 C6           1.4990     0.2920    -3.7280 c6         1 MPO       0.152600
     13 C7           1.0050    -0.2910    -2.3690 c6         1 MPO       0.129300
     14 H11         -0.8940    -1.5160     1.8340 h1         1 MPO       0.062200
     15 H12         -1.8750    -0.0240     1.8630 h1         1 MPO       0.062200
     16 H21         -0.1160     1.1470     0.4790 hc         1 MPO       0.055200
     17 H22          0.8540    -0.3270     0.4630 hc         1 MPO       0.055200
     18 H31         -0.9160    -1.5150    -0.8070 h1         1 MPO       0.022700
     19 H32         -1.9770    -0.1110    -0.6690 h1         1 MPO       0.022700
     20 H41         -1.4130    -1.2770    -3.3270 h1         1 MPO       0.038950
     21 H42         -2.3090     0.2190    -3.0350 h1         1 MPO       0.038950
     22 H51         -1.4040     0.0840    -5.3870 h1         1 MPO       0.042950
     23 H52         -0.7640     1.4960    -4.5120 h1         1 MPO       0.042950
     24 H61          2.4990    -0.0990    -3.9620 h1         1 MPO       0.042950
     25 H62          1.5660     1.3870    -3.6640 h1         1 MPO       0.042950
     26 H71          1.6940     0.0510    -1.5840 h1         1 MPO       0.038950
     27 H72          1.0790    -1.3880    -2.4090 h1         1 MPO       0.038950
@<TRIPOS>BOND
     1     1     2 1   
     2     1     3 1   
     3     1     6 1   
     4     1     7 1   
     5     4    11 1   
     6     4    12 1   
     7     5     9 1   
     8     5    10 1   
     9     5    13 1   
    10     6     8 1   
    11     6    14 1   
    12     6    15 1   
    13     8     9 1   
    14     8    16 1   
    15     8    17 1   
    16     9    18 1   
    17     9    19 1   
    18    10    11 1   
    19    10    20 1   
    20    10    21 1   
    21    11    22 1   
    22    11    23 1   
    23    12    13 1   
    24    12    24 1   
    25    12    25 1   
    26    13    26 1   
    27    13    27 1   
@<TRIPOS>SUBSTRUCTURE
     1 MPO         1 TEMP              0 ****  ****    0 ROOT
