@<TRIPOS>MOLECULE
MPO
   27    27     1     0     0
SMALL
bcc


@<TRIPOS>ATOM
      1 S1          -0.0200     0.1760     3.1920 s6         1 MPO       1.211800
      2 O1          -0.1610     1.6460     3.1430 o          1 MPO      -0.697867
      3 O2           1.3870    -0.2700     3.1160 o          1 MPO      -0.697867
      4 O4           0.5690     0.0030    -4.7290 os         1 MPO      -0.417600
      5 N1          -0.3770     0.0850    -2.0470 n3         1 MPO      -0.715600
      6 C1          -0.8140    -0.4450     1.7000 c3         1 MPO      -0.247600
      7 O3          -0.7560    -0.4400     4.3140 o          1 MPO      -0.697867
      8 C2          -0.2000     0.1080     0.4260 c3         1 MPO      -0.032400
      9 C3          -0.8920    -0.4610    -0.8060 c3         1 MPO       0.167800
     10 C4          -1.2710    -0.1660    -3.1620 c6         1 MPO       0.129300
     11 C5          -0.7250     0.4760    -4.4230 c6         1 MPO       0.129400
     12 C6           1.4510     0.2270    -3.6520 c6         1 MPO       0.129400
     13 C7           0.9490    -0.4110    -2.3710 c6         1 MPO       0.129300
     14 H11         -0.7380    -1.5350     1.7310 h1         1 MPO       0.062200
     15 H12         -1.8730    -0.1880     1.7700 h1         1 MPO       0.062200
     16 H21         -0.2900     1.1960     0.4110 hc         1 MPO       0.055200
     17 H22          0.8670    -0.1260     0.4110 hc         1 MPO       0.055200
     18 H31         -0.8290    -1.5630    -0.7910 h1         1 MPO       0.022700
     19 H32         -1.9570    -0.2160    -0.7500 h1         1 MPO       0.022700
     20 H41         -1.4220    -1.2450    -3.3340 h1         1 MPO       0.038950
     21 H42         -2.2520     0.2650    -2.9450 h1         1 MPO       0.038950
     22 H51         -1.3680     0.2420    -5.2730 h1         1 MPO       0.042950
     23 H52         -0.7140     1.5680    -4.2970 h1         1 MPO       0.042950
     24 H61          2.4160    -0.2000    -3.9260 h1         1 MPO       0.042950
     25 H62          1.5930     1.3050    -3.4890 h1         1 MPO       0.042950
     26 H71          1.6490    -0.1680    -1.5700 h1         1 MPO       0.038950
     27 H72          0.9530    -1.5100    -2.4800 h1         1 MPO       0.038950
@<TRIPOS>BOND
     1     1     2 1   
     2     1     3 1   
     3     1     6 1   
     4     1     7 1   
     5     4    11 1   
     6     4    12 1   
     7     5     9 1   
     8     5    10 1   
     9     5    13 1   
    10     6     8 1   
    11     6    14 1   
    12     6    15 1   
    13     8     9 1   
    14     8    16 1   
    15     8    17 1   
    16     9    18 1   
    17     9    19 1   
    18    10    11 1   
    19    10    20 1   
    20    10    21 1   
    21    11    22 1   
    22    11    23 1   
    23    12    13 1   
    24    12    24 1   
    25    12    25 1   
    26    13    26 1   
    27    13    27 1   
@<TRIPOS>SUBSTRUCTURE
     1 MPO         1 TEMP              0 ****  ****    0 ROOT
