@<TRIPOS>MOLECULE
MPP
   28    28     1     0     0
SMALL
No Charge or Current Charge


@<TRIPOS>ATOM
      1 CA           0.1370    -0.5620    -2.7900 c3         1 MPP      -0.203400
      2 C            0.0740    -0.2270    -4.2890 c          1 MPP       0.717000
      3 OT1         -1.0160     0.0270    -4.7770 o          1 MPP      -0.740500
      4 OT2          1.1230    -0.1790    -4.9130 o          1 MPP      -0.740500
      5 CB           0.3150     0.7340    -1.9650 c3         1 MPP      -0.020100
      6 CG           0.3890     0.4610    -0.4680 ca         1 MPP      -0.039300
      7 CD1         -0.7910     0.3500     0.2900 ca         1 MPP      -0.168000
      8 CD2          1.6360     0.3150     0.1650 ca         1 MPP      -0.122000
      9 CE1         -0.7300     0.0940     1.6800 ca         1 MPP       0.102100
     10 OEA         -1.8760    -0.0210     2.4510 os         1 MPP      -0.336100
     11 CEA         -3.1980     0.1080     1.8960 c3         1 MPP       0.148900
     12 CE2          1.7110     0.0610     1.5450 ca         1 MPP      -0.169000
     13 CZ           0.5290    -0.0510     2.3120 ca         1 MPP       0.077100
     14 OZA          0.5650    -0.3010     3.6750 os         1 MPP      -0.332100
     15 CZA          1.7980    -0.4620     4.3970 c3         1 MPP       0.151900
     16 HA1          1.0170    -1.1800    -2.5700 hc         1 MPP       0.020700
     17 HA2         -0.8090    -1.0050    -2.4540 hc         1 MPP       0.020700
     18 HB1         -0.5170     1.4160    -2.1800 hc         1 MPP       0.050700
     19 HB2          1.2230     1.2520    -2.2990 hc         1 MPP       0.050700
     20 HD1         -1.7440     0.4620    -0.2170 ha         1 MPP       0.123000
     21 HD2          2.5530     0.3960    -0.4150 ha         1 MPP       0.113000
     22 HEA1        -3.9530    -0.0190     2.6820 h1         1 MPP       0.034033
     23 HEA2        -3.3370     1.1000     1.4480 h1         1 MPP       0.034033
     24 HEA3        -3.3740    -0.6560     1.1280 h1         1 MPP       0.034033
     25 HE2          2.6920    -0.0460     1.9980 ha         1 MPP       0.103000
     26 HZA1         1.5940    -0.6510     5.4590 h1         1 MPP       0.029033
     27 HZA2         2.3720    -1.3110     4.0050 h1         1 MPP       0.029033
     28 HZA3         2.4130     0.4440     4.3250 h1         1 MPP       0.029033
@<TRIPOS>BOND
     1     1     2 1   
     2     1     5 1   
     3     1    16 1   
     4     1    17 1   
     5     2     3 1   
     6     2     4 1   
     7     5     6 1   
     8     5    18 1   
     9     5    19 1   
    10     6     7 ar  
    11     6     8 ar  
    12     7     9 ar  
    13     7    20 1   
    14     8    12 ar  
    15     8    21 1   
    16     9    10 1   
    17     9    13 ar  
    18    10    11 1   
    19    11    22 1   
    20    11    23 1   
    21    11    24 1   
    22    12    13 ar  
    23    12    25 1   
    24    13    14 1   
    25    14    15 1   
    26    15    26 1   
    27    15    27 1   
    28    15    28 1   
@<TRIPOS>SUBSTRUCTURE
     1 MPP         1 TEMP              0 ****  ****    0 ROOT
