@<TRIPOS>MOLECULE
MPP
   28    28     1     0     0
SMALL
bcc


@<TRIPOS>ATOM
      1 CA           0.1140    -0.4480    -2.7180 c3         1 MPP      -0.203400
      2 C           -0.0320    -0.2710    -4.2400 c          1 MPP       0.927600
      3 OT1          0.0400     0.8840    -4.7030 o          1 MPP      -0.845800
      4 OT2         -0.2140    -1.3210    -4.8930 o          1 MPP      -0.845800
      5 CB           0.3490     0.8330    -1.9230 c3         1 MPP      -0.020100
      6 CG           0.4300     0.5710    -0.4440 ca         1 MPP      -0.039300
      7 CD1         -0.7410     0.3390     0.2880 ca         1 MPP      -0.186000
      8 CD2          1.6400     0.5070     0.2220 ca         1 MPP      -0.140000
      9 CE1         -0.7040     0.0490     1.6410 ca         1 MPP       0.102100
     10 OEA         -1.7860    -0.1840     2.4110 os         1 MPP      -0.312900
     11 CEA         -3.0580    -0.1520     1.8010 c3         1 MPP       0.125700
     12 CE2          1.6970     0.2160     1.5860 ca         1 MPP      -0.187000
     13 CZ           0.5390    -0.0150     2.3060 ca         1 MPP       0.077100
     14 OZA          0.4840    -0.3020     3.6230 os         1 MPP      -0.308900
     15 CZA          1.7040    -0.4050     4.3270 c3         1 MPP       0.128700
     16 HA1          0.9330    -1.1510    -2.5280 hc         1 MPP       0.020700
     17 HA2         -0.7850    -0.9530    -2.3450 hc         1 MPP       0.020700
     18 HB1         -0.4560     1.5430    -2.1270 hc         1 MPP       0.050700
     19 HB2          1.2730     1.3080    -2.2600 hc         1 MPP       0.050700
     20 HD1         -1.6910     0.3960    -0.2300 ha         1 MPP       0.141000
     21 HD2          2.5640     0.6860    -0.3150 ha         1 MPP       0.131000
     22 HEA1        -3.7820    -0.3640     2.5840 h1         1 MPP       0.034033
     23 HEA2        -3.2830     0.8280     1.3700 h1         1 MPP       0.034033
     24 HEA3        -3.1580    -0.9090     1.0180 h1         1 MPP       0.034033
     25 HE2          2.6640     0.1760     2.0710 ha         1 MPP       0.121000
     26 HZA1         1.4500    -0.6500     5.3550 h1         1 MPP       0.029033
     27 HZA2         2.3430    -1.1960     3.9240 h1         1 MPP       0.029033
     28 HZA3         2.2630     0.5350     4.3180 h1         1 MPP       0.029033
@<TRIPOS>BOND
     1     1     2 1   
     2     1     5 1   
     3     1    16 1   
     4     1    17 1   
     5     2     3 1   
     6     2     4 1   
     7     5     6 1   
     8     5    18 1   
     9     5    19 1   
    10     6     7 ar  
    11     6     8 ar  
    12     7     9 ar  
    13     7    20 1   
    14     8    12 ar  
    15     8    21 1   
    16     9    10 1   
    17     9    13 ar  
    18    10    11 1   
    19    11    22 1   
    20    11    23 1   
    21    11    24 1   
    22    12    13 ar  
    23    12    25 1   
    24    13    14 1   
    25    14    15 1   
    26    15    26 1   
    27    15    27 1   
    28    15    28 1   
@<TRIPOS>SUBSTRUCTURE
     1 MPP         1 TEMP              0 ****  ****    0 ROOT
