@<TRIPOS>MOLECULE
MPQ
   22    22     1     0     0
SMALL
No Charge or Current Charge


@<TRIPOS>ATOM
      1 N           38.5720    56.4160    10.3470 n7         1 MPQ      -0.852400
      2 CM          37.8330    57.2920     9.4150 c3         1 MPQ       0.154100
      3 CA          39.0430    55.0820     9.8060 c3         1 MPQ       0.048800
      4 CG          37.8840    54.2740     9.2010 ca         1 MPQ       0.004700
      5 CD1         37.1520    53.3840    10.0150 ca         1 MPQ      -0.095500
      6 CD2         37.5280    54.4050     7.8410 ca         1 MPQ      -0.095500
      7 CE1         36.0880    52.6360     9.4800 ca         1 MPQ      -0.131500
      8 CE2         36.4640    53.6580     7.3060 ca         1 MPQ      -0.131500
      9 CZ          35.7450    52.7730     8.1250 ca         1 MPQ      -0.141000
     10 C           40.3050    55.1180     8.8440 c          1 MPQ       0.700000
     11 O           40.8320    56.1940     8.5870 o          1 MPQ      -0.725500
     12 OXT         40.7530    54.0530     8.4370 o          1 MPQ      -0.725500
     13 H           39.4130    56.9300    10.6450 hn         1 MPQ       0.413000
     14 HM1         37.5990    58.2500     9.8980 h1         1 MPQ       0.015033
     15 HM2         38.4250    57.5030     8.5140 h1         1 MPQ       0.015033
     16 HM3         36.8850    56.8320     9.1070 h1         1 MPQ       0.015033
     17 HA1         39.4050    54.5030    10.6650 h1         1 MPQ       0.044700
     18 HD11        37.4090    53.2750    11.0660 ha         1 MPQ       0.113000
     19 HD21        38.0740    55.0910     7.1970 ha         1 MPQ       0.113000
     20 HE11        35.5310    51.9530    10.1160 ha         1 MPQ       0.088000
     21 HE21        36.1970    53.7660     6.2580 ha         1 MPQ       0.088000
     22 HZ1         34.9210    52.1950     7.7120 ha         1 MPQ       0.085000
@<TRIPOS>BOND
     1     1     2 1   
     2     1     3 1   
     3     1    13 1   
     4     2    14 1   
     5     2    15 1   
     6     2    16 1   
     7     3     4 1   
     8     3    10 1   
     9     3    17 1   
    10     4     5 ar  
    11     4     6 ar  
    12     5     7 ar  
    13     5    18 1   
    14     6     8 ar  
    15     6    19 1   
    16     7     9 ar  
    17     7    20 1   
    18     8     9 ar  
    19     8    21 1   
    20     9    22 1   
    21    10    11 1   
    22    10    12 1   
@<TRIPOS>SUBSTRUCTURE
     1 MPQ         1 TEMP              0 ****  ****    0 ROOT
