@<TRIPOS>MOLECULE
MPQ
   22    22     1     0     0
SMALL
bcc


@<TRIPOS>ATOM
      1 N           38.4980    56.3380    10.3200 n7         1 MPQ      -0.797200
      2 CM          37.8950    57.2250     9.3450 c3         1 MPQ       0.154100
      3 CA          39.0200    55.0870     9.7780 c3         1 MPQ       0.048800
      4 CG          37.9030    54.2630     9.1810 ca         1 MPQ       0.004700
      5 CD1         37.1780    53.3950     9.9940 ca         1 MPQ      -0.113500
      6 CD2         37.5190    54.3800     7.8460 ca         1 MPQ      -0.113500
      7 CE1         36.1100    52.6580     9.4960 ca         1 MPQ      -0.149500
      8 CE2         36.4490    53.6540     7.3420 ca         1 MPQ      -0.149500
      9 CZ          35.7410    52.7860     8.1650 ca         1 MPQ      -0.159000
     10 C           40.2770    55.2190     8.8670 c          1 MPQ       0.910600
     11 O           40.9280    56.2760     8.9730 o          1 MPQ      -0.830800
     12 OXT         40.5640    54.2230     8.1760 o          1 MPQ      -0.830800
     13 H           39.2880    56.8220    10.7270 hn         1 MPQ       0.357800
     14 HM1         37.7170    58.1940     9.8140 h1         1 MPQ       0.015033
     15 HM2         38.4970    57.4000     8.4440 h1         1 MPQ       0.015033
     16 HM3         36.9240    56.8460     9.0230 h1         1 MPQ       0.015033
     17 HA1         39.3810    54.5220    10.6490 h1         1 MPQ       0.044700
     18 HD11        37.4580    53.2870    11.0360 ha         1 MPQ       0.131000
     19 HD21        38.0610    55.0470     7.1860 ha         1 MPQ       0.131000
     20 HE11        35.5700    51.9840    10.1490 ha         1 MPQ       0.106000
     21 HE21        36.1690    53.7620     6.3020 ha         1 MPQ       0.106000
     22 HZ1         34.9110    52.2140     7.7690 ha         1 MPQ       0.103000
@<TRIPOS>BOND
     1     1     2 1   
     2     1     3 1   
     3     1    13 1   
     4     2    14 1   
     5     2    15 1   
     6     2    16 1   
     7     3     4 1   
     8     3    10 1   
     9     3    17 1   
    10     4     5 ar  
    11     4     6 ar  
    12     5     7 ar  
    13     5    18 1   
    14     6     8 ar  
    15     6    19 1   
    16     7     9 ar  
    17     7    20 1   
    18     8     9 ar  
    19     8    21 1   
    20     9    22 1   
    21    10    11 1   
    22    10    12 1   
@<TRIPOS>SUBSTRUCTURE
     1 MPQ         1 TEMP              0 ****  ****    0 ROOT
