@<TRIPOS>MOLECULE
MPR
   11    10     1     0     0
SMALL
bcc


@<TRIPOS>ATOM
      1 C1           5.8350     3.8020    -0.8230 c          1 MPR       0.571900
      2 O            6.5720     4.1970     0.0440 o          1 MPR      -0.498100
      3 C2           6.2530     3.4800    -2.2240 c3         1 MPR      -0.194400
      4 C3           7.6890     3.8140    -2.5760 c3         1 MPR       0.048700
      5 S3           7.8870     5.6250    -2.6980 sh         1 MPR      -0.401900
      6 H1           4.7630     3.6270    -0.6220 h4         1 MPR      -0.013800
      7 H21          5.5440     3.9530    -2.9120 hc         1 MPR       0.072700
      8 H22          6.0830     2.4040    -2.3530 hc         1 MPR       0.072700
      9 H31          8.3730     3.4180    -1.8260 h1         1 MPR       0.064200
     10 H32          7.9410     3.3680    -3.5360 h1         1 MPR       0.064200
     11 HS3          9.1660     5.6350    -3.0860 hs         1 MPR       0.212800
@<TRIPOS>BOND
     1     1     2 2   
     2     1     3 1   
     3     1     6 1   
     4     3     4 1   
     5     3     7 1   
     6     3     8 1   
     7     4     5 1   
     8     4     9 1   
     9     4    10 1   
    10     5    11 1   
@<TRIPOS>SUBSTRUCTURE
     1 MPR         1 TEMP              0 ****  ****    0 ROOT
