@<TRIPOS>MOLECULE
MPR
   11    10     1     0     0
SMALL
No Charge or Current Charge


@<TRIPOS>ATOM
      1 C1           5.8710     3.8280    -0.8080 c          1 MPR       0.571900
      2 O            6.2570     3.3600     0.2580 o          1 MPR      -0.498100
      3 C2           6.3020     3.2760    -2.1650 c3         1 MPR      -0.194400
      4 C3           7.6570     3.8640    -2.5980 c3         1 MPR       0.096600
      5 S3           7.6110     5.7000    -2.8340 sh         1 MPR      -0.449800
      6 H1           5.1590     4.6810    -0.8380 h4         1 MPR      -0.013800
      7 H21          5.5600     3.5660    -2.9180 hc         1 MPR       0.072700
      8 H22          6.3930     2.1860    -2.1040 hc         1 MPR       0.072700
      9 H31          8.4220     3.6250    -1.8470 h1         1 MPR       0.064200
     10 H32          7.9640     3.4040    -3.5470 h1         1 MPR       0.064200
     11 HS3          8.9080     5.8340    -3.2100 hs         1 MPR       0.212800
@<TRIPOS>BOND
     1     1     2 2   
     2     1     3 1   
     3     1     6 1   
     4     3     4 1   
     5     3     7 1   
     6     3     8 1   
     7     4     5 1   
     8     4     9 1   
     9     4    10 1   
    10     5    11 1   
@<TRIPOS>SUBSTRUCTURE
     1 MPR         1 TEMP              0 ****  ****    0 ROOT
