@<TRIPOS>MOLECULE
MPS
    8     7     1     0     0
SMALL
bcc


@<TRIPOS>ATOM
      1 CM          -0.0680    -1.0620     0.2320 c3         1 MPS      -0.303300
      2 P           -0.4360    -1.4770     1.9740 p5         1 MPS       1.101600
      3 O1           0.8040    -1.2520     2.8120 o          1 MPS      -0.834500
      4 O2          -1.1400    -2.8170     2.0300 o          1 MPS      -0.834500
      5 HM1         -0.9600    -1.1310    -0.3910 hc         1 MPS       0.033033
      6 HM2          0.3340    -0.0520     0.1420 hc         1 MPS       0.033033
      7 HM3          0.6750    -1.7570    -0.1630 hc         1 MPS       0.033033
      8 H           -1.3890    -0.4490     2.2860 hp         1 MPS      -0.228400
@<TRIPOS>BOND
     1     1     2 1   
     2     1     5 1   
     3     1     6 1   
     4     1     7 1   
     5     2     3 1   
     6     2     4 1   
     7     2     8 1   
@<TRIPOS>SUBSTRUCTURE
     1 MPS         1 TEMP              0 ****  ****    0 ROOT
