@<TRIPOS>MOLECULE
MPS
    8     7     1     0     0
SMALL
No Charge or Current Charge


@<TRIPOS>ATOM
      1 CM          -0.0650    -1.0590     0.2210 c3         1 MPS      -0.461100
      2 P           -0.4510    -1.4570     1.9710 p5         1 MPS       1.259400
      3 O1           0.7750    -1.3050     2.8150 o          1 MPS      -0.834500
      4 O2          -1.0760    -2.8130     2.0640 o          1 MPS      -0.834500
      5 HM1         -0.9790    -1.1190    -0.3800 hc         1 MPS       0.033033
      6 HM2          0.3410    -0.0430     0.1560 hc         1 MPS       0.033033
      7 HM3          0.6720    -1.7680    -0.1700 hc         1 MPS       0.033033
      8 H           -1.3970    -0.4330     2.2450 hp         1 MPS      -0.228400
@<TRIPOS>BOND
     1     1     2 1   
     2     1     5 1   
     3     1     6 1   
     4     1     7 1   
     5     2     3 1   
     6     2     4 1   
     7     2     8 1   
@<TRIPOS>SUBSTRUCTURE
     1 MPS         1 TEMP              0 ****  ****    0 ROOT
