@<TRIPOS>MOLECULE
MPU
   29    30     1     0     0
SMALL
No Charge or Current Charge


@<TRIPOS>ATOM
      1 N2           3.6770    -0.8430     0.7330 ns         1 MPU      -0.459400
      2 C1           2.4130    -1.0610     1.1650 c          1 MPU       0.494500
      3 O11          2.1700    -1.9060     2.0170 o          1 MPU      -0.492000
      4 C10          1.3860    -0.1800     0.5060 ca         1 MPU       0.157500
      5 N9           0.0690    -0.3080     0.8540 nb         1 MPU      -0.591000
      6 C8          -0.8080     0.5120     0.2210 ca         1 MPU       0.225300
      7 C7          -0.3620     1.4500    -0.7300 ca         1 MPU       0.103900
      8 N6           0.9390     1.5680    -1.0650 nb         1 MPU      -0.110000
      9 C5           1.8510     0.7640    -0.4670 ca         1 MPU       0.335000
     10 N4           3.2140     0.9010    -0.8340 nc         1 MPU      -0.774700
     11 C3           3.9900     0.0740    -0.1890 cd         1 MPU       0.756800
     12 N13          5.2560     0.1790    -0.5190 nv         1 MPU      -1.054200
     13 C16         -2.2910     0.3830     0.6160 c3         1 MPU       0.103000
     14 O21         -2.4450    -0.6940     1.5700 oh         1 MPU      -0.730000
     15 C26         -3.2350     0.1580    -0.6070 c3         1 MPU       0.153300
     16 O22         -2.9440    -1.1240    -1.2000 oh         1 MPU      -0.638000
     17 C28         -4.7420     0.2510    -0.2110 c3         1 MPU       0.132600
     18 O24         -5.5970     0.2000    -1.3700 oh         1 MPU      -0.710000
     19 HN2          4.4040    -1.3920     1.1620 hn         1 MPU       0.327500
     20 H7          -1.0540     2.1230    -1.2320 h4         1 MPU       0.035100
     21 H131         5.3880     0.7600    -1.3370 hn         1 MPU       0.516000
     22 H132         5.8010    -0.6730    -0.5150 hn         1 MPU       0.516000
     23 H16         -2.5780     1.3340     1.0860 h1         1 MPU       0.067700
     24 H21         -1.5070    -0.9570     1.7650 ho         1 MPU       0.547000
     25 H26         -3.0470     0.9580    -1.3360 h1         1 MPU       0.080700
     26 H22         -2.9190    -1.7540    -0.4460 ho         1 MPU       0.449000
     27 H281        -4.9870    -0.5680     0.4800 h1         1 MPU       0.028200
     28 H282        -4.9050     1.1930     0.3290 h1         1 MPU       0.028200
     29 H24         -6.5280     0.2020    -1.0430 ho         1 MPU       0.502000
@<TRIPOS>BOND
     1     1     2 1   
     2     1    11 1   
     3     1    19 1   
     4     2     3 2   
     5     2     4 1   
     6     4     5 ar  
     7     4     9 ar  
     8     5     6 ar  
     9     6     7 ar  
    10     6    13 1   
    11     7     8 ar  
    12     7    20 1   
    13     8     9 ar  
    14     9    10 1   
    15    10    11 2   
    16    11    12 1   
    17    12    21 1   
    18    12    22 1   
    19    13    14 1   
    20    13    15 1   
    21    13    23 1   
    22    14    24 1   
    23    15    16 1   
    24    15    17 1   
    25    15    25 1   
    26    16    26 1   
    27    17    18 1   
    28    17    27 1   
    29    17    28 1   
    30    18    29 1   
@<TRIPOS>SUBSTRUCTURE
     1 MPU         1 TEMP              0 ****  ****    0 ROOT
