@<TRIPOS>MOLECULE
MPU
   29    30     1     0     0
SMALL
abcg2


@<TRIPOS>ATOM
      1 N2           3.4990    -0.9630     0.5600 ns         1 MPU      -0.459400
      2 C1           2.2060    -1.1490     0.9990 c          1 MPU       0.494500
      3 O11          1.9130    -2.0400     1.7670 o          1 MPU      -0.492000
      4 C10          1.2780    -0.1710     0.4350 ca         1 MPU       0.157500
      5 N9          -0.0050    -0.2380     0.7750 nb         1 MPU      -0.591000
      6 C8          -0.8280     0.6440     0.2670 ca         1 MPU       0.225300
      7 C7          -0.3420     1.6360    -0.6040 ca         1 MPU       0.103900
      8 N6           0.9180     1.7200    -0.9510 nb         1 MPU      -0.110000
      9 C5           1.7680     0.8090    -0.4410 ca         1 MPU       0.335000
     10 N4           3.0640     0.9030    -0.8050 nc         1 MPU      -0.774700
     11 C3           3.8900     0.0240    -0.3030 cd         1 MPU       0.756800
     12 N13          5.1820     0.0640    -0.6180 nv         1 MPU      -1.054200
     13 C16         -2.2800     0.5440     0.6600 c3         1 MPU       0.103000
     14 O21         -2.4370    -0.3600     1.7210 oh         1 MPU      -0.730000
     15 C26         -3.1280     0.1130    -0.5470 c3         1 MPU       0.153300
     16 O22         -2.7150    -1.1390    -1.0340 oh         1 MPU      -0.638000
     17 C28         -4.6090     0.1500    -0.2040 c3         1 MPU       0.132600
     18 O24         -5.3480    -0.1100    -1.3740 oh         1 MPU      -0.710000
     19 HN2          4.1930    -1.6110     0.9120 hn         1 MPU       0.327500
     20 H7          -1.0160     2.3810    -1.0150 h4         1 MPU       0.035100
     21 H131         5.5030     0.7600    -1.2690 hn         1 MPU       0.516000
     22 H132         5.8440    -0.6160    -0.2870 hn         1 MPU       0.516000
     23 H16         -2.6190     1.5400     0.9750 h1         1 MPU       0.067700
     24 H21         -1.5950    -0.8330     1.8190 ho         1 MPU       0.547000
     25 H26         -2.9520     0.8310    -1.3570 h1         1 MPU       0.080700
     26 H22         -2.8290    -1.7870    -0.3290 ho         1 MPU       0.449000
     27 H281        -4.8240    -0.5860     0.5820 h1         1 MPU       0.028200
     28 H282        -4.8430     1.1390     0.2110 h1         1 MPU       0.028200
     29 H24         -6.2810    -0.1030    -1.1430 ho         1 MPU       0.502000
@<TRIPOS>BOND
     1     1     2 1   
     2     1    11 1   
     3     1    19 1   
     4     2     3 2   
     5     2     4 1   
     6     4     5 ar  
     7     4     9 ar  
     8     5     6 ar  
     9     6     7 ar  
    10     6    13 1   
    11     7     8 ar  
    12     7    20 1   
    13     8     9 ar  
    14     9    10 1   
    15    10    11 2   
    16    11    12 1   
    17    12    21 1   
    18    12    22 1   
    19    13    14 1   
    20    13    15 1   
    21    13    23 1   
    22    14    24 1   
    23    15    16 1   
    24    15    17 1   
    25    15    25 1   
    26    16    26 1   
    27    17    18 1   
    28    17    27 1   
    29    17    28 1   
    30    18    29 1   
@<TRIPOS>SUBSTRUCTURE
     1 MPU         1 TEMP              0 ****  ****    0 ROOT
