@<TRIPOS>MOLECULE
MPV
   21    22     1     0     0
SMALL
abcg2


@<TRIPOS>ATOM
      1 C1          -0.9990    -1.1280     0.0960 cc         1 MPV      -0.283000
      2 C2          -2.3280    -0.7450     0.0970 cd         1 MPV       0.205000
      3 N3          -2.3390     0.6040     0.0730 na         1 MPV       0.109800
      4 N4          -1.1050     1.1260     0.0330 nd         1 MPV      -0.516800
      5 C5          -0.2890     0.0880     0.0590 cc         1 MPV       0.355500
      6 C6           1.1500     0.2810     0.0340 cc         1 MPV      -0.239500
      7 S7           2.2240    -1.0480     0.2690 ss         1 MPV       0.202000
      8 C8           3.6060    -0.0480     0.1010 cc         1 MPV      -0.245000
      9 C9           3.2570     1.2490    -0.1210 cd         1 MPV      -0.134000
     10 C10          1.8510     1.4400    -0.1600 cd         1 MPV      -0.111000
     11 C11         -3.4970     1.4610     0.0320 c3         1 MPV       0.069900
     12 N12         -3.4850    -1.4820     0.1860 nv         1 MPV      -1.046000
     13 H1          -0.6160    -2.1350     0.1060 ha         1 MPV       0.147000
     14 H8           4.5960    -0.4700     0.1770 h4         1 MPV       0.148000
     15 H9           3.9770     2.0430    -0.2560 ha         1 MPV       0.132000
     16 H10          1.3760     2.3950    -0.3330 ha         1 MPV       0.145000
     17 H11         -4.3000     1.0270     0.6250 h1         1 MPV       0.055700
     18 H11A        -3.2330     2.4230     0.4600 h1         1 MPV       0.055700
     19 H11B        -3.8520     1.6100    -0.9880 h1         1 MPV       0.055700
     20 HN12        -3.3250    -2.4730     0.0940 hn         1 MPV       0.446500
     21 HN1A        -4.2260    -1.1960    -0.4380 hn         1 MPV       0.446500
@<TRIPOS>BOND
     1     1     2 2   
     2     1     5 1   
     3     1    13 1   
     4     2     3 1   
     5     2    12 1   
     6     3     4 1   
     7     3    11 1   
     8     4     5 2   
     9     5     6 1   
    10     6     7 1   
    11     6    10 2   
    12     7     8 1   
    13     8     9 2   
    14     8    14 1   
    15     9    10 1   
    16     9    15 1   
    17    10    16 1   
    18    11    17 1   
    19    11    18 1   
    20    11    19 1   
    21    12    20 1   
    22    12    21 1   
@<TRIPOS>SUBSTRUCTURE
     1 MPV         1 TEMP              0 ****  ****    0 ROOT
