@<TRIPOS>MOLECULE
MPV
   21    22     1     0     0
SMALL
No Charge or Current Charge


@<TRIPOS>ATOM
      1 C1          -0.9740    -1.0340     0.0500 cc         1 MPV      -0.283000
      2 C2          -2.2890    -0.7410     0.0370 cd         1 MPV       0.205000
      3 N3          -2.3570     0.6620    -0.0050 na         1 MPV       0.109800
      4 N4          -1.0930     1.2440    -0.0190 nd         1 MPV      -0.516800
      5 C5          -0.2890     0.1950     0.0150 cc         1 MPV       0.355500
      6 C6           1.1470     0.2490     0.0180 cc         1 MPV      -0.239500
      7 S7           2.2090    -1.1550     0.0630 ss         1 MPV       0.202000
      8 C8           3.6270    -0.1090     0.0360 cc         1 MPV      -0.245000
      9 C9           3.2670     1.2150    -0.0050 cd         1 MPV      -0.134000
     10 C10          1.8610     1.4230    -0.0160 cd         1 MPV      -0.111000
     11 C11         -3.5720     1.4910    -0.0330 c3         1 MPV       0.069900
     12 N12         -3.3740    -1.5780     0.0590 nv         1 MPV      -1.046000
     13 H1          -0.5240    -2.0180     0.0810 ha         1 MPV       0.147000
     14 H8           4.6160    -0.5500     0.0520 h4         1 MPV       0.148000
     15 H9           3.9880     2.0280    -0.0270 ha         1 MPV       0.132000
     16 H10          1.4050     2.4090    -0.0470 ha         1 MPV       0.145000
     17 H11         -4.1780     1.2810     0.8570 h1         1 MPV       0.055700
     18 H11A        -3.3020     2.5540    -0.0420 h1         1 MPV       0.055700
     19 H11B        -4.1530     1.2580    -0.9330 h1         1 MPV       0.055700
     20 HN12        -3.2480    -2.5890     0.0280 hn         1 MPV       0.446500
     21 HN1A        -4.3230    -1.2140    -0.0230 hn         1 MPV       0.446500
@<TRIPOS>BOND
     1     1     2 2   
     2     1     5 1   
     3     1    13 1   
     4     2     3 1   
     5     2    12 1   
     6     3     4 1   
     7     3    11 1   
     8     4     5 2   
     9     5     6 1   
    10     6     7 1   
    11     6    10 2   
    12     7     8 1   
    13     8     9 2   
    14     8    14 1   
    15     9    10 1   
    16     9    15 1   
    17    10    16 1   
    18    11    17 1   
    19    11    18 1   
    20    11    19 1   
    21    12    20 1   
    22    12    21 1   
@<TRIPOS>SUBSTRUCTURE
     1 MPV         1 TEMP              0 ****  ****    0 ROOT
