@<TRIPOS>MOLECULE
MPW
   33    35     1     0     0
SMALL
No Charge or Current Charge


@<TRIPOS>ATOM
      1 O            5.1570     0.9050     1.1380 os         1 MPW      -0.334100
      2 C1          -3.5180     0.5900     0.5850 ca         1 MPW       0.034400
      3 N1          -4.9180    -0.7260    -0.8720 nb         1 MPW      -0.668000
      4 C2          -4.6030     0.9590     1.3920 ca         1 MPW      -0.016000
      5 N2          -2.5070    -0.4130    -1.0860 na         1 MPW      -0.423300
      6 C3          -5.8680     0.4560     1.0310 ca         1 MPW      -0.190000
      7 N3           2.5940    -1.3740    -1.2740 nb         1 MPW      -0.705000
      8 C4          -5.9800    -0.3790    -0.1020 ca         1 MPW       0.350900
      9 N4          -2.1920     0.9570     0.7400 nc         1 MPW      -0.578100
     10 C5          -3.7210    -0.2310    -0.5060 ca         1 MPW       0.340500
     11 C6          -1.6220     0.3250    -0.2980 cd         1 MPW       0.432800
     12 C7           0.6450    -0.7710     0.0690 c3         1 MPW      -0.113700
     13 C8           2.1380    -0.6860    -0.2050 ca         1 MPW       0.374300
     14 C9           3.9150    -1.3150    -1.5520 ca         1 MPW       0.374900
     15 C10          4.8230    -0.5720    -0.7840 ca         1 MPW      -0.261000
     16 C11          4.3440     0.1450     0.3250 ca         1 MPW       0.180100
     17 C12          6.5730     1.0200     0.9080 c3         1 MPW       0.147900
     18 C13          2.9770     0.0840     0.6140 ca         1 MPW      -0.197000
     19 C14         -0.1430     0.4020    -0.5650 c3         1 MPW      -0.090700
     20 HN2         -2.2920    -0.9640    -1.9030 hn         1 MPW       0.367000
     21 H3          -6.7500     0.7030     1.6140 ha         1 MPW       0.124000
     22 H4          -6.9480    -0.7800    -0.4000 h4         1 MPW       0.020100
     23 H7           0.2450    -1.7200    -0.3080 hc         1 MPW       0.071700
     24 H7A          0.4700    -0.7770     1.1520 hc         1 MPW       0.071700
     25 H9           4.2550    -1.8810    -2.4180 h4         1 MPW       0.016100
     26 H10          5.8700    -0.5700    -1.0660 ha         1 MPW       0.127000
     27 H12          7.0580     0.0370     0.9630 h1         1 MPW       0.045033
     28 H12A         6.7730     1.4570    -0.0780 h1         1 MPW       0.045033
     29 H12B         7.0300     1.6680     1.6660 h1         1 MPW       0.045033
     30 H13          2.5710     0.6270     1.4620 ha         1 MPW       0.138000
     31 H14          0.0340     0.4110    -1.6470 hc         1 MPW       0.068200
     32 H14A         0.2530     1.3510    -0.1820 hc         1 MPW       0.068200
     33 H2          -4.4710     1.6050     2.2570 ha         1 MPW       0.133000
@<TRIPOS>BOND
     1     1    16 1   
     2     1    17 1   
     3     2     4 ar  
     4     2     9 1   
     5     2    10 ar  
     6     3     8 ar  
     7     3    10 ar  
     8     4     6 ar  
     9     4    33 1   
    10     5    10 1   
    11     5    11 1   
    12     5    20 1   
    13     6     8 ar  
    14     6    21 1   
    15     7    13 ar  
    16     7    14 ar  
    17     8    22 1   
    18     9    11 2   
    19    11    19 1   
    20    12    13 1   
    21    12    19 1   
    22    12    23 1   
    23    12    24 1   
    24    13    18 ar  
    25    14    15 ar  
    26    14    25 1   
    27    15    16 ar  
    28    15    26 1   
    29    16    18 ar  
    30    17    27 1   
    31    17    28 1   
    32    17    29 1   
    33    18    30 1   
    34    19    31 1   
    35    19    32 1   
@<TRIPOS>SUBSTRUCTURE
     1 MPW         1 TEMP              0 ****  ****    0 ROOT
