@<TRIPOS>MOLECULE
MPW
   33    35     1     0     0
SMALL
bcc


@<TRIPOS>ATOM
      1 O            5.3120     1.0240     1.0460 os         1 MPW      -0.310900
      2 C1          -3.4970     0.0290     0.6680 ca         1 MPW      -0.030900
      3 N1          -5.0260     0.1840    -1.2250 nb         1 MPW      -0.668000
      4 C2          -4.5420     0.0650     1.5790 ca         1 MPW      -0.034000
      5 N2          -2.6170     0.0490    -1.3420 na         1 MPW      -0.373000
      6 C3          -5.8220     0.1600     1.0510 ca         1 MPW      -0.273300
      7 N3           2.4680    -1.1960    -0.9440 nb         1 MPW      -0.705000
      8 C4          -6.0120     0.2130    -0.3320 ca         1 MPW       0.416200
      9 N4          -2.1360    -0.0590     0.8240 nc         1 MPW      -0.578100
     10 C5          -3.8210     0.0980    -0.6990 ca         1 MPW       0.405800
     11 C6          -1.6490    -0.0450    -0.3870 cd         1 MPW       0.432800
     12 C7           0.7010    -0.3070     0.4560 c3         1 MPW      -0.113700
     13 C8           2.1510    -0.3760     0.0610 ca         1 MPW       0.439600
     14 C9           3.7430    -1.2780    -1.2910 ca         1 MPW       0.440200
     15 C10          4.7730    -0.5760    -0.6850 ca         1 MPW      -0.344300
     16 C11          4.4410     0.2790     0.3630 ca         1 MPW       0.180100
     17 C12          6.6820     0.9730     0.6800 c3         1 MPW       0.124700
     18 C13          3.0990     0.3740     0.7350 ca         1 MPW      -0.280300
     19 C14         -0.2080    -0.1050    -0.7510 c3         1 MPW      -0.090700
     20 HN2         -2.4730     0.0610    -2.3410 hn         1 MPW       0.316700
     21 H3          -6.6830     0.1990     1.7030 ha         1 MPW       0.142000
     22 H4          -7.0170     0.2790    -0.7310 h4         1 MPW       0.020100
     23 H7           0.4280    -1.2340     0.9670 hc         1 MPW       0.071700
     24 H7A          0.5540     0.5000     1.1740 hc         1 MPW       0.071700
     25 H9           3.9770    -1.9480    -2.1130 h4         1 MPW       0.016100
     26 H10          5.7850    -0.7070    -1.0390 ha         1 MPW       0.145000
     27 H12          7.0970    -0.0290     0.8070 h1         1 MPW       0.045033
     28 H12A         6.8370     1.2940    -0.3530 h1         1 MPW       0.045033
     29 H12B         7.2020     1.6580     1.3440 h1         1 MPW       0.045033
     30 H13          2.8050     1.0340     1.5420 ha         1 MPW       0.156000
     31 H14         -0.0540    -0.9110    -1.4720 hc         1 MPW       0.068200
     32 H14A         0.0610     0.8210    -1.2690 hc         1 MPW       0.068200
     33 H2          -4.3710     0.0220     2.6470 ha         1 MPW       0.151000
@<TRIPOS>BOND
     1     1    16 1   
     2     1    17 1   
     3     2     4 ar  
     4     2     9 1   
     5     2    10 ar  
     6     3     8 ar  
     7     3    10 ar  
     8     4     6 ar  
     9     4    33 1   
    10     5    10 1   
    11     5    11 1   
    12     5    20 1   
    13     6     8 ar  
    14     6    21 1   
    15     7    13 ar  
    16     7    14 ar  
    17     8    22 1   
    18     9    11 2   
    19    11    19 1   
    20    12    13 1   
    21    12    19 1   
    22    12    23 1   
    23    12    24 1   
    24    13    18 ar  
    25    14    15 ar  
    26    14    25 1   
    27    15    16 ar  
    28    15    26 1   
    29    16    18 ar  
    30    17    27 1   
    31    17    28 1   
    32    17    29 1   
    33    18    30 1   
    34    19    31 1   
    35    19    32 1   
@<TRIPOS>SUBSTRUCTURE
     1 MPW         1 TEMP              0 ****  ****    0 ROOT
