@<TRIPOS>MOLECULE
MPX
   40    41     1     0     0
SMALL
bcc


@<TRIPOS>ATOM
      1 C1          -1.8290     0.3540     0.2630 ca         1 MPX      -0.286500
      2 C2          -1.3740    -0.2630    -0.8930 ca         1 MPX      -0.017000
      3 C3          -0.3670    -1.2090    -0.8020 ca         1 MPX      -0.158000
      4 C4           0.1920    -1.5120     0.4330 ca         1 MPX       0.128600
      5 C5          -0.2970    -0.9150     1.5890 ca         1 MPX      -0.158000
      6 C6          -1.3090     0.0230     1.5080 ca         1 MPX      -0.017000
      7 N10          1.1990    -2.4970     0.5450 ns         1 MPX      -0.438100
      8 C16          2.3830    -2.5660    -0.0930 cs         1 MPX       0.626400
      9 S25          3.2210    -4.0200    -0.1890 s          1 MPX      -0.650400
     10 N17          2.9010    -1.4530    -0.6330 ns         1 MPX      -0.382300
     11 N18          2.4530    -0.1980    -0.2840 n3         1 MPX      -0.500600
     12 C23          2.3170     0.6780    -1.4330 c6         1 MPX       0.153300
     13 C22          1.6880     1.9850    -0.9920 c6         1 MPX       0.163300
     14 N21          2.4640     2.6080     0.0610 n3         1 MPX      -0.713600
     15 C24          1.8960     3.8790     0.4480 c3         1 MPX       0.148100
     16 C20          2.5850     1.7120     1.1930 c6         1 MPX       0.163300
     17 C19          3.2410     0.4080     0.7780 c6         1 MPX       0.153300
     18 S7          -3.0930     1.5830     0.1680 sy         1 MPX       1.267200
     19 N15         -2.2150     2.9550     0.4570 n8         1 MPX      -0.892700
     20 O14         -3.6590     1.5450    -1.1740 o          1 MPX      -0.610800
     21 O13         -3.9960     1.4470     1.3020 o          1 MPX      -0.610800
     22 H2          -1.7950    -0.0210    -1.8590 ha         1 MPX       0.158000
     23 H3          -0.0180    -1.7090    -1.6960 ha         1 MPX       0.148000
     24 H5           0.1300    -1.1700     2.5500 ha         1 MPX       0.148000
     25 H6          -1.6740     0.4970     2.4090 ha         1 MPX       0.158000
     26 H10          0.9480    -3.3370     1.0450 hn         1 MPX       0.357500
     27 H17          3.8270    -1.5500    -1.0400 hn         1 MPX       0.339500
     28 H231         1.6770     0.1960    -2.1730 h1         1 MPX       0.052700
     29 H232         3.2920     0.8760    -1.9050 h1         1 MPX       0.052700
     30 H221         0.6520     1.7870    -0.6660 h1         1 MPX       0.043700
     31 H222         1.6350     2.6600    -1.8490 h1         1 MPX       0.043700
     32 H241         0.8670     3.7930     0.8350 h1         1 MPX       0.035367
     33 H242         2.5050     4.3400     1.2260 h1         1 MPX       0.035367
     34 H243         1.8740     4.5560    -0.4070 h1         1 MPX       0.035367
     35 H201         3.1980     2.1850     1.9640 h1         1 MPX       0.043700
     36 H202         1.6030     1.4880     1.6440 h1         1 MPX       0.043700
     37 H191         3.2640    -0.2720     1.6310 h1         1 MPX       0.052700
     38 H192         4.2780     0.5920     0.4600 h1         1 MPX       0.052700
     39 H151        -1.6280     3.2150    -0.3300 hn         1 MPX       0.415800
     40 H152        -2.8170     3.7330     0.7110 hn         1 MPX       0.415800
@<TRIPOS>BOND
     1     1     2 ar  
     2     1     6 ar  
     3     1    18 1   
     4     2     3 ar  
     5     2    22 1   
     6     3     4 ar  
     7     3    23 1   
     8     4     5 ar  
     9     4     7 1   
    10     5     6 ar  
    11     5    24 1   
    12     6    25 1   
    13     7     8 1   
    14     7    26 1   
    15     8     9 2   
    16     8    10 1   
    17    10    11 1   
    18    10    27 1   
    19    11    12 1   
    20    11    17 1   
    21    12    13 1   
    22    12    28 1   
    23    12    29 1   
    24    13    14 1   
    25    13    30 1   
    26    13    31 1   
    27    14    15 1   
    28    14    16 1   
    29    15    32 1   
    30    15    33 1   
    31    15    34 1   
    32    16    17 1   
    33    16    35 1   
    34    16    36 1   
    35    17    37 1   
    36    17    38 1   
    37    18    19 1   
    38    18    20 2   
    39    18    21 2   
    40    19    39 1   
    41    19    40 1   
@<TRIPOS>SUBSTRUCTURE
     1 MPX         1 TEMP              0 ****  ****    0 ROOT
