@<TRIPOS>MOLECULE
MPX
   40    41     1     0     0
SMALL
No Charge or Current Charge


@<TRIPOS>ATOM
      1 C1          -1.9670     0.2900     0.4480 ca         1 MPX      -0.286500
      2 C2          -1.3040    -0.0450    -0.7500 ca         1 MPX       0.001000
      3 C3          -0.2810    -1.0080    -0.7390 ca         1 MPX      -0.140000
      4 C4           0.1030    -1.6270     0.4650 ca         1 MPX       0.128600
      5 C5          -0.5750    -1.3090     1.6530 ca         1 MPX      -0.140000
      6 C6          -1.6010    -0.3470     1.6510 ca         1 MPX       0.001000
      7 N10          1.1210    -2.6060     0.4910 ns         1 MPX      -0.371100
      8 C16          2.3700    -2.7030    -0.0700 cs         1 MPX       0.492400
      9 S25          3.1770    -4.1620    -0.0830 s          1 MPX      -0.650400
     10 N17          2.9940    -1.5510    -0.5130 ns         1 MPX      -0.315300
     11 N18          2.5530    -0.2010    -0.3530 n3         1 MPX      -0.500600
     12 C23          2.7860     0.6490    -1.5540 c6         1 MPX       0.153300
     13 C22          2.1800     2.0730    -1.3620 c6         1 MPX       0.163300
     14 N21          2.6820     2.7410    -0.1200 n3         1 MPX      -0.713600
     15 C24          2.1310     4.1020     0.0550 c3         1 MPX       0.148100
     16 C20          2.4430     1.8680     1.0710 c6         1 MPX       0.163300
     17 C19          3.0540     0.4450     0.8910 c6         1 MPX       0.153300
     18 S7          -3.2730     1.5200     0.4410 sy         1 MPX       1.125600
     19 N15         -2.4690     2.9110     0.7200 n8         1 MPX      -1.003100
     20 O14         -3.8150     1.7000    -0.9040 o          1 MPX      -0.540000
     21 O13         -4.1320     1.3780     1.6150 o          1 MPX      -0.540000
     22 H2          -1.5780     0.4340    -1.6890 ha         1 MPX       0.140000
     23 H3           0.2220    -1.2680    -1.6660 ha         1 MPX       0.130000
     24 H5          -0.2970    -1.7940     2.5850 ha         1 MPX       0.130000
     25 H6          -2.1060    -0.1020     2.5840 ha         1 MPX       0.140000
     26 H10          0.8280    -3.4690     0.9320 hn         1 MPX       0.357500
     27 H17          3.9410    -1.7010    -0.8530 hn         1 MPX       0.339500
     28 H231         2.3320     0.1880    -2.4420 h1         1 MPX       0.052700
     29 H232         3.8640     0.7450    -1.7490 h1         1 MPX       0.052700
     30 H221         1.0840     1.9820    -1.3240 h1         1 MPX       0.043700
     31 H222         2.4220     2.6800    -2.2470 h1         1 MPX       0.043700
     32 H241         1.0390     4.0720     0.1710 h1         1 MPX       0.035367
     33 H242         2.5590     4.5820     0.9450 h1         1 MPX       0.035367
     34 H243         2.3670     4.7310    -0.8140 h1         1 MPX       0.035367
     35 H201         2.8750     2.3240     1.9730 h1         1 MPX       0.043700
     36 H202         1.3620     1.7600     1.2500 h1         1 MPX       0.043700
     37 H191         2.7930    -0.1650     1.7680 h1         1 MPX       0.052700
     38 H192         4.1500     0.5270     0.8630 h1         1 MPX       0.052700
     39 H151        -2.8160     3.4820    -0.0470 hn         1 MPX       0.471000
     40 H152        -2.9960     3.2730     1.5110 hn         1 MPX       0.471000
@<TRIPOS>BOND
     1     1     2 ar  
     2     1     6 ar  
     3     1    18 1   
     4     2     3 ar  
     5     2    22 1   
     6     3     4 ar  
     7     3    23 1   
     8     4     5 ar  
     9     4     7 1   
    10     5     6 ar  
    11     5    24 1   
    12     6    25 1   
    13     7     8 1   
    14     7    26 1   
    15     8     9 2   
    16     8    10 1   
    17    10    11 1   
    18    10    27 1   
    19    11    12 1   
    20    11    17 1   
    21    12    13 1   
    22    12    28 1   
    23    12    29 1   
    24    13    14 1   
    25    13    30 1   
    26    13    31 1   
    27    14    15 1   
    28    14    16 1   
    29    15    32 1   
    30    15    33 1   
    31    15    34 1   
    32    16    17 1   
    33    16    35 1   
    34    16    36 1   
    35    17    37 1   
    36    17    38 1   
    37    18    19 1   
    38    18    20 2   
    39    18    21 2   
    40    19    39 1   
    41    19    40 1   
@<TRIPOS>SUBSTRUCTURE
     1 MPX         1 TEMP              0 ****  ****    0 ROOT
