@<TRIPOS>MOLECULE
MPZ
   65    69     1     0     0
SMALL
No Charge or Current Charge


@<TRIPOS>ATOM
      1 O16         -0.4840    -1.2280    -0.6610 o          1 MPZ      -0.583100
      2 C15          0.4700    -0.9050    -1.3610 c          1 MPZ       0.623700
      3 C14          0.4080    -1.0310    -2.8750 ca         1 MPZ      -0.157600
      4 C13         -0.7680    -1.5250    -3.4850 ca         1 MPZ      -0.074000
      5 C12         -0.8570    -1.6540    -4.8810 ca         1 MPZ      -0.108500
      6 C11          1.4950    -0.6690    -3.7100 ca         1 MPZ      -0.074000
      7 C10          1.4000    -0.7990    -5.1070 ca         1 MPZ      -0.108500
      8 C09          0.2250    -1.2920    -5.7020 ca         1 MPZ      -0.060300
      9 C08          0.1210    -1.4330    -7.2190 c3         1 MPZ       0.213100
     10 N07         -0.8360    -0.4830    -7.8360 n3         1 MPZ      -0.727600
     11 C06         -1.0380    -0.7400    -9.2950 c6         1 MPZ       0.166300
     12 C05         -2.0700     0.2430    -9.9360 c6         1 MPZ       0.164300
     13 C04         -0.4700     0.9530    -7.6160 c6         1 MPZ       0.166300
     14 C03         -1.5010     1.9360    -8.2600 c6         1 MPZ       0.164300
     15 NP2         -1.7020     1.6760    -9.7180 n3         1 MPZ      -0.718600
     16 C01         -2.6600     2.6150   -10.3400 c3         1 MPZ       0.153100
     17 N17          1.6640    -0.4150    -0.8440 ns         1 MPZ      -0.143000
     18 C18          2.0980    -0.1390     0.4810 ca         1 MPZ       0.012000
     19 C19          3.4420     0.2380     0.6550 ca         1 MPZ      -0.200000
     20 C20          3.9470     0.5220     1.9330 ca         1 MPZ      -0.057000
     21 C21          3.1030     0.4420     3.0510 ca         1 MPZ      -0.163000
     22 C23          1.7520     0.0890     2.8960 ca         1 MPZ       0.345000
     23 C22          1.2600    -0.2110     1.6150 ca         1 MPZ      -0.198000
     24 N24          0.8780    -0.0140     3.9820 nu         1 MPZ      -0.927900
     25 C25          0.8040     0.5780     5.2360 ca         1 MPZ       0.393900
     26 N26          1.6440     1.5860     5.5300 nb         1 MPZ      -0.228000
     27 C27          1.5180     2.1350     6.7510 ca         1 MPZ       0.148900
     28 C28          0.5570     1.6720     7.6640 ca         1 MPZ      -0.267000
     29 C30         -0.2870     0.6050     7.2700 cp         1 MPZ       0.233500
     30 N29         -0.1490     0.0750     6.0370 nb         1 MPZ      -0.256000
     31 C31         -1.3520     0.0260     8.1540 cp         1 MPZ      -0.214500
     32 C32         -2.3860    -0.8000     7.6400 ca         1 MPZ      -0.028000
     33 C36         -3.3540    -1.3140     8.5160 ca         1 MPZ      -0.174000
     34 C35         -3.2760    -1.0040     9.8810 ca         1 MPZ       0.348900
     35 N34         -2.3000    -0.2260    10.3980 nb         1 MPZ      -0.671000
     36 C33         -1.3690     0.2710     9.5520 ca         1 MPZ       0.359900
     37 H13         -1.6250    -1.8120    -2.8780 ha         1 MPZ       0.123000
     38 H12         -1.7730    -2.0310    -5.3310 ha         1 MPZ       0.124500
     39 H11          2.4240    -0.2820    -3.2980 ha         1 MPZ       0.123000
     40 H10          2.2460    -0.5130    -5.7290 ha         1 MPZ       0.124500
     41 H081        -0.1900    -2.4630    -7.4400 h1         1 MPZ       0.041200
     42 H082         1.1180    -1.3020    -7.6630 h1         1 MPZ       0.041200
     43 H061        -1.3900    -1.7690    -9.4550 h1         1 MPZ       0.039700
     44 H062        -0.0820    -0.6400    -9.8320 h1         1 MPZ       0.039700
     45 H051        -3.0610     0.0380    -9.5050 h1         1 MPZ       0.038200
     46 H052        -2.1380     0.0280   -11.0130 h1         1 MPZ       0.038200
     47 H041        -0.4080     1.1750    -6.5410 h1         1 MPZ       0.039700
     48 H042         0.5230     1.1590    -8.0440 h1         1 MPZ       0.039700
     49 H031        -1.1490     2.9660    -8.1010 h1         1 MPZ       0.038200
     50 H032        -2.4570     1.8370    -7.7240 h1         1 MPZ       0.038200
     51 H011        -2.3290     3.6530   -10.2030 h1         1 MPZ       0.030700
     52 H012        -2.7420     2.4260   -11.4190 h1         1 MPZ       0.030700
     53 H013        -3.6580     2.5090    -9.8950 h1         1 MPZ       0.030700
     54 H17          2.3630    -0.2120    -1.5450 hn         1 MPZ       0.154000
     55 H19          4.1050     0.3020    -0.2050 ha         1 MPZ       0.110000
     56 H20          4.9920     0.7980     2.0570 ha         1 MPZ       0.113000
     57 H21          3.5140     0.6390     4.0350 ha         1 MPZ       0.151000
     58 H22          0.2160    -0.4820     1.5190 ha         1 MPZ       0.147000
     59 H24          0.0660    -0.6000     3.7910 hn         1 MPZ       0.514000
     60 H27          2.1910     2.9540     6.9980 h4         1 MPZ       0.024100
     61 H28          0.4710     2.1450     8.6360 ha         1 MPZ       0.138000
     62 H32         -2.4470    -1.0370     6.5790 ha         1 MPZ       0.140000
     63 H36         -4.1570    -1.9460     8.1480 ha         1 MPZ       0.128000
     64 H35         -4.0140    -1.3910    10.5820 h4         1 MPZ       0.021100
     65 H33         -0.5990     0.8780    10.0240 h4         1 MPZ       0.020100
@<TRIPOS>BOND
     1     1     2 2   
     2     2     3 1   
     3     2    17 1   
     4     3     4 ar  
     5     3     6 ar  
     6     4     5 ar  
     7     4    37 1   
     8     5     8 ar  
     9     5    38 1   
    10     6     7 ar  
    11     6    39 1   
    12     7     8 ar  
    13     7    40 1   
    14     8     9 1   
    15     9    10 1   
    16     9    41 1   
    17     9    42 1   
    18    10    11 1   
    19    10    13 1   
    20    11    12 1   
    21    11    43 1   
    22    11    44 1   
    23    12    15 1   
    24    12    45 1   
    25    12    46 1   
    26    13    14 1   
    27    13    47 1   
    28    13    48 1   
    29    14    15 1   
    30    14    49 1   
    31    14    50 1   
    32    15    16 1   
    33    16    51 1   
    34    16    52 1   
    35    16    53 1   
    36    17    18 1   
    37    17    54 1   
    38    18    19 ar  
    39    18    23 ar  
    40    19    20 ar  
    41    19    55 1   
    42    20    21 ar  
    43    20    56 1   
    44    21    22 ar  
    45    21    57 1   
    46    22    23 ar  
    47    22    24 1   
    48    23    58 1   
    49    24    25 1   
    50    24    59 1   
    51    25    26 ar  
    52    25    30 ar  
    53    26    27 ar  
    54    27    28 ar  
    55    27    60 1   
    56    28    29 ar  
    57    28    61 1   
    58    29    30 ar  
    59    29    31 1   
    60    31    32 ar  
    61    31    36 ar  
    62    32    33 ar  
    63    32    62 1   
    64    33    34 ar  
    65    33    63 1   
    66    34    35 ar  
    67    34    64 1   
    68    35    36 ar  
    69    36    65 1   
@<TRIPOS>SUBSTRUCTURE
     1 MPZ         1 TEMP              0 ****  ****    0 ROOT
