@<TRIPOS>MOLECULE
MPZ
   65    69     1     0     0
SMALL
abcg2


@<TRIPOS>ATOM
      1 O16         -0.1240    -0.5850    -0.7790 o          1 MPZ      -0.583100
      2 C15          0.9200    -0.5440    -1.4080 c          1 MPZ       0.623700
      3 C14          0.9200    -0.5860    -2.9000 ca         1 MPZ      -0.157600
      4 C13         -0.1930    -1.1340    -3.5390 ca         1 MPZ      -0.074000
      5 C12         -0.2690    -1.1650    -4.9190 ca         1 MPZ      -0.108500
      6 C11          1.9430    -0.0530    -3.6810 ca         1 MPZ      -0.074000
      7 C10          1.8560    -0.0780    -5.0660 ca         1 MPZ      -0.108500
      8 C09          0.7560    -0.6370    -5.7030 ca         1 MPZ      -0.060300
      9 C08          0.6640    -0.6800    -7.2050 c3         1 MPZ       0.213100
     10 N07         -0.6340    -0.2570    -7.6780 n3         1 MPZ      -0.727600
     11 C06         -0.8430    -0.5690    -9.0790 c6         1 MPZ       0.166300
     12 C05         -2.2520    -0.1960    -9.4970 c6         1 MPZ       0.164300
     13 C04         -0.8800     1.1510    -7.4320 c6         1 MPZ       0.166300
     14 C03         -2.2870     1.5230    -7.8520 c6         1 MPZ       0.164300
     15 NP2         -2.5060     1.2090    -9.2490 n3         1 MPZ      -0.718600
     16 C01         -3.8260     1.6000    -9.6850 c3         1 MPZ       0.153100
     17 N17          2.1460    -0.4680    -0.8300 ns         1 MPZ      -0.143000
     18 C18          2.4860    -0.3090     0.5160 ca         1 MPZ       0.012000
     19 C19          3.8500    -0.1910     0.8030 ca         1 MPZ      -0.200000
     20 C20          4.2570    -0.0190     2.1110 ca         1 MPZ      -0.057000
     21 C21          3.3500     0.0420     3.1600 ca         1 MPZ      -0.163000
     22 C23          1.9900    -0.0790     2.8770 ca         1 MPZ       0.345000
     23 C22          1.5630    -0.2570     1.5540 ca         1 MPZ      -0.198000
     24 N24          0.9750    -0.0550     3.8270 nu         1 MPZ      -0.927900
     25 C25          0.9880     0.1930     5.1650 ca         1 MPZ       0.393900
     26 N26          2.1240     0.5010     5.7810 nb         1 MPZ      -0.228000
     27 C27          2.0310     0.7420     7.0820 ca         1 MPZ       0.148900
     28 C28          0.8440     0.6780     7.7830 ca         1 MPZ      -0.267000
     29 C30         -0.2890     0.3300     7.0460 cp         1 MPZ       0.233500
     30 N29         -0.2100     0.0950     5.7460 nb         1 MPZ      -0.256000
     31 C31         -1.6270     0.2130     7.6550 cp         1 MPZ      -0.214500
     32 C32         -2.7780     0.2740     6.8720 ca         1 MPZ      -0.028000
     33 C36         -4.0140     0.1610     7.4810 ca         1 MPZ      -0.174000
     34 C35         -4.0610    -0.0230     8.8560 ca         1 MPZ       0.348900
     35 N34         -2.9750    -0.0980     9.6160 nb         1 MPZ      -0.671000
     36 C33         -1.7940     0.0190     9.0260 ca         1 MPZ       0.359900
     37 H13         -1.0040    -1.5430    -2.9510 ha         1 MPZ       0.123000
     38 H12         -1.1420    -1.5860    -5.4000 ha         1 MPZ       0.124500
     39 H11          2.8040     0.4260    -3.2330 ha         1 MPZ       0.123000
     40 H10          2.6530     0.3620    -5.6530 ha         1 MPZ       0.124500
     41 H081         0.8250    -1.7120    -7.5340 h1         1 MPZ       0.041200
     42 H082         1.4870    -0.0890    -7.6410 h1         1 MPZ       0.041200
     43 H061        -0.6960    -1.6400    -9.2320 h1         1 MPZ       0.039700
     44 H062        -0.1210    -0.0450    -9.7290 h1         1 MPZ       0.039700
     45 H051        -2.9690    -0.8420    -8.9600 h1         1 MPZ       0.038200
     46 H052        -2.3740    -0.3990   -10.5640 h1         1 MPZ       0.038200
     47 H041        -0.7620     1.3610    -6.3670 h1         1 MPZ       0.039700
     48 H042        -0.1560     1.7870    -7.9710 h1         1 MPZ       0.039700
     49 H031        -2.4360     2.5940    -7.6990 h1         1 MPZ       0.038200
     50 H032        -3.0070     0.9990    -7.1980 h1         1 MPZ       0.038200
     51 H011        -3.9700     2.6710    -9.5290 h1         1 MPZ       0.030700
     52 H012        -3.9430     1.4010   -10.7520 h1         1 MPZ       0.030700
     53 H013        -4.6340     1.0730    -9.1550 h1         1 MPZ       0.030700
     54 H17          2.9400    -0.5390    -1.4460 hn         1 MPZ       0.154000
     55 H19          4.5810    -0.2270     0.0040 ha         1 MPZ       0.110000
     56 H20          5.3140     0.0710     2.3260 ha         1 MPZ       0.113000
     57 H21          3.6940     0.1820     4.1700 ha         1 MPZ       0.151000
     58 H22          0.5080    -0.3550     1.3530 ha         1 MPZ       0.147000
     59 H24          0.0490    -0.2420     3.4730 hn         1 MPZ       0.514000
     60 H27          2.9530     1.0030     7.5890 h4         1 MPZ       0.024100
     61 H28          0.8140     0.9030     8.8380 ha         1 MPZ       0.138000
     62 H32         -2.7000     0.4130     5.8020 ha         1 MPZ       0.140000
     63 H36         -4.9270     0.2150     6.9050 ha         1 MPZ       0.128000
     64 H35         -5.0150    -0.1160     9.3630 h4         1 MPZ       0.021100
     65 H33         -0.9320    -0.0660     9.6780 h4         1 MPZ       0.020100
@<TRIPOS>BOND
     1     1     2 2   
     2     2     3 1   
     3     2    17 1   
     4     3     4 ar  
     5     3     6 ar  
     6     4     5 ar  
     7     4    37 1   
     8     5     8 ar  
     9     5    38 1   
    10     6     7 ar  
    11     6    39 1   
    12     7     8 ar  
    13     7    40 1   
    14     8     9 1   
    15     9    10 1   
    16     9    41 1   
    17     9    42 1   
    18    10    11 1   
    19    10    13 1   
    20    11    12 1   
    21    11    43 1   
    22    11    44 1   
    23    12    15 1   
    24    12    45 1   
    25    12    46 1   
    26    13    14 1   
    27    13    47 1   
    28    13    48 1   
    29    14    15 1   
    30    14    49 1   
    31    14    50 1   
    32    15    16 1   
    33    16    51 1   
    34    16    52 1   
    35    16    53 1   
    36    17    18 1   
    37    17    54 1   
    38    18    19 ar  
    39    18    23 ar  
    40    19    20 ar  
    41    19    55 1   
    42    20    21 ar  
    43    20    56 1   
    44    21    22 ar  
    45    21    57 1   
    46    22    23 ar  
    47    22    24 1   
    48    23    58 1   
    49    24    25 1   
    50    24    59 1   
    51    25    26 ar  
    52    25    30 ar  
    53    26    27 ar  
    54    27    28 ar  
    55    27    60 1   
    56    28    29 ar  
    57    28    61 1   
    58    29    30 ar  
    59    29    31 1   
    60    31    32 ar  
    61    31    36 ar  
    62    32    33 ar  
    63    32    62 1   
    64    33    34 ar  
    65    33    63 1   
    66    34    35 ar  
    67    34    64 1   
    68    35    36 ar  
    69    36    65 1   
@<TRIPOS>SUBSTRUCTURE
     1 MPZ         1 TEMP              0 ****  ****    0 ROOT
