@<TRIPOS>MOLECULE
MQ1
   35    37     1     0     0
SMALL
No Charge or Current Charge


@<TRIPOS>ATOM
      1 C1           1.2620     0.0910    -2.7980 ca         1 MQ1       0.130000
      2 C2           0.2230    -0.2600    -1.8980 ca         1 MQ1      -0.246000
      3 C3          -1.0970    -0.1300    -2.3890 ca         1 MQ1       0.458900
      4 N4          -1.3720     0.2840    -3.6270 nb         1 MQ1      -0.364000
      5 C5          -0.3160     0.5800    -4.3810 ca         1 MQ1       0.428900
      6 N6           0.9760     0.5140    -4.0460 nb         1 MQ1      -0.303000
      7 N7          -2.2100    -0.4020    -1.6690 nv         1 MQ1      -1.070900
      8 C8           2.6020    -0.0060    -2.3860 ca         1 MQ1      -0.156000
      9 C9           2.9270    -0.4540    -1.0980 ca         1 MQ1      -0.038000
     10 C12          1.9050    -0.8090    -0.2090 ca         1 MQ1      -0.238000
     11 C13          0.5550    -0.7080    -0.5930 ca         1 MQ1       0.198100
     12 N14         -0.5880     1.0050    -5.6320 nv         1 MQ1      -1.054900
     13 O20         -0.4180    -1.0920     0.3060 os         1 MQ1      -0.280200
     14 C22         -0.4200    -0.6880     1.6230 ca         1 MQ1       0.052100
     15 C23         -0.9410    -1.5550     2.5970 ca         1 MQ1      -0.076000
     16 C24         -0.9680    -1.1620     3.9470 ca         1 MQ1      -0.165000
     17 C25         -0.4840     0.0990     4.3310 ca         1 MQ1       0.145100
     18 C26          0.0290     0.9770     3.3500 ca         1 MQ1      -0.165000
     19 C27          0.0560     0.5840     1.9990 ca         1 MQ1      -0.076000
     20 O32         -0.5360     0.4290     5.6700 os         1 MQ1      -0.338100
     21 C33         -0.0660     1.6940     6.1680 c3         1 MQ1       0.146900
     22 H71         -3.0790    -0.5610    -2.1700 hn         1 MQ1       0.509000
     23 H72         -2.0830    -0.8870    -0.7840 hn         1 MQ1       0.509000
     24 H8           3.3990     0.2640    -3.0740 ha         1 MQ1       0.133000
     25 H9           3.9690    -0.5310    -0.7940 ha         1 MQ1       0.112000
     26 H12          2.1610    -1.1700     0.7840 ha         1 MQ1       0.126000
     27 H141        -1.5410     1.2920    -5.8390 hn         1 MQ1       0.487000
     28 H142         0.1520     1.4630    -6.1560 hn         1 MQ1       0.487000
     29 H23         -1.3190    -2.5320     2.3060 ha         1 MQ1       0.131000
     30 H24         -1.3670    -1.8370     4.7000 ha         1 MQ1       0.127500
     31 H26          0.4050     1.9610     3.6130 ha         1 MQ1       0.127500
     32 H27          0.4430     1.2700     1.2490 ha         1 MQ1       0.131000
     33 H331        -0.1990     1.7470     7.2560 h1         1 MQ1       0.043033
     34 H332         1.0010     1.8280     5.9500 h1         1 MQ1       0.043033
     35 H333        -0.6260     2.5240     5.7170 h1         1 MQ1       0.043033
@<TRIPOS>BOND
     1     1     2 ar  
     2     1     6 ar  
     3     1     8 ar  
     4     2     3 ar  
     5     2    11 ar  
     6     3     4 ar  
     7     3     7 1   
     8     4     5 ar  
     9     5     6 ar  
    10     5    12 1   
    11     7    22 1   
    12     7    23 1   
    13     8     9 ar  
    14     8    24 1   
    15     9    10 ar  
    16     9    25 1   
    17    10    11 ar  
    18    10    26 1   
    19    11    13 1   
    20    12    27 1   
    21    12    28 1   
    22    13    14 1   
    23    14    15 ar  
    24    14    19 ar  
    25    15    16 ar  
    26    15    29 1   
    27    16    17 ar  
    28    16    30 1   
    29    17    18 ar  
    30    17    20 1   
    31    18    19 ar  
    32    18    31 1   
    33    19    32 1   
    34    20    21 1   
    35    21    33 1   
    36    21    34 1   
    37    21    35 1   
@<TRIPOS>SUBSTRUCTURE
     1 MQ1         1 TEMP              0 ****  ****    0 ROOT
