@<TRIPOS>MOLECULE
MQ1
   35    37     1     0     0
SMALL
abcg2


@<TRIPOS>ATOM
      1 C1           1.2000    -0.1150    -2.8460 ca         1 MQ1       0.130000
      2 C2           0.1080    -0.0740    -1.9430 ca         1 MQ1      -0.246000
      3 C3          -1.1920     0.0490    -2.5650 ca         1 MQ1       0.458900
      4 N4          -1.3110     0.1120    -3.8780 nb         1 MQ1      -0.364000
      5 C5          -0.1960     0.0610    -4.6240 ca         1 MQ1       0.428900
      6 N6           1.0410    -0.0440    -4.1850 nb         1 MQ1      -0.303000
      7 N7          -2.3290     0.1050    -1.8690 nv         1 MQ1      -1.070900
      8 C8           2.5110    -0.2300    -2.3380 ca         1 MQ1      -0.156000
      9 C9           2.7210    -0.3020    -0.9870 ca         1 MQ1      -0.038000
     10 C12          1.6560    -0.2600    -0.0770 ca         1 MQ1      -0.238000
     11 C13          0.3690    -0.1470    -0.5520 ca         1 MQ1       0.198100
     12 N14         -0.3890     0.0910    -5.9630 nv         1 MQ1      -1.054900
     13 O20         -0.7090    -0.1020     0.2730 os         1 MQ1      -0.280200
     14 C22         -0.5240    -0.0800     1.6390 ca         1 MQ1       0.052100
     15 C23         -0.5650    -1.2670     2.3560 ca         1 MQ1      -0.076000
     16 C24         -0.4270    -1.2390     3.7310 ca         1 MQ1      -0.165000
     17 C25         -0.2460    -0.0270     4.4010 ca         1 MQ1       0.145100
     18 C26         -0.2060     1.1590     3.6700 ca         1 MQ1      -0.165000
     19 C27         -0.3450     1.1270     2.2880 ca         1 MQ1      -0.076000
     20 O32         -0.1240    -0.0980     5.7390 os         1 MQ1      -0.338100
     21 C33          0.0730     1.1010     6.4630 c3         1 MQ1       0.146900
     22 H71         -3.1960     0.1960    -2.3710 hn         1 MQ1       0.509000
     23 H72         -2.3500     0.0720    -0.8670 hn         1 MQ1       0.509000
     24 H8           3.3350    -0.2600    -3.0380 ha         1 MQ1       0.133000
     25 H9           3.7290    -0.3940    -0.6030 ha         1 MQ1       0.112000
     26 H12          1.8550    -0.3210     0.9830 ha         1 MQ1       0.126000
     27 H141        -1.2810     0.4030    -6.3060 hn         1 MQ1       0.487000
     28 H142         0.4060     0.2840    -6.5480 hn         1 MQ1       0.487000
     29 H23         -0.7090    -2.2100     1.8430 ha         1 MQ1       0.131000
     30 H24         -0.4610    -2.1610     4.2980 ha         1 MQ1       0.127500
     31 H26         -0.0700     2.1170     4.1530 ha         1 MQ1       0.127500
     32 H27         -0.3160     2.0500     1.7240 ha         1 MQ1       0.131000
     33 H331         0.1420     0.8220     7.5110 h1         1 MQ1       0.043033
     34 H332         0.9980     1.6060     6.1710 h1         1 MQ1       0.043033
     35 H333        -0.7610     1.7960     6.3380 h1         1 MQ1       0.043033
@<TRIPOS>BOND
     1     1     2 ar  
     2     1     6 ar  
     3     1     8 ar  
     4     2     3 ar  
     5     2    11 ar  
     6     3     4 ar  
     7     3     7 1   
     8     4     5 ar  
     9     5     6 ar  
    10     5    12 1   
    11     7    22 1   
    12     7    23 1   
    13     8     9 ar  
    14     8    24 1   
    15     9    10 ar  
    16     9    25 1   
    17    10    11 ar  
    18    10    26 1   
    19    11    13 1   
    20    12    27 1   
    21    12    28 1   
    22    13    14 1   
    23    14    15 ar  
    24    14    19 ar  
    25    15    16 ar  
    26    15    29 1   
    27    16    17 ar  
    28    16    30 1   
    29    17    18 ar  
    30    17    20 1   
    31    18    19 ar  
    32    18    31 1   
    33    19    32 1   
    34    20    21 1   
    35    21    33 1   
    36    21    34 1   
    37    21    35 1   
@<TRIPOS>SUBSTRUCTURE
     1 MQ1         1 TEMP              0 ****  ****    0 ROOT
