@<TRIPOS>MOLECULE
MQ2
   63    65     1     0     0
SMALL
abcg2


@<TRIPOS>ATOM
      1 C10         -6.3840    52.1260    -4.6760 ca         1 MQ2      -0.059300
      2 C15         -8.4460    55.5120    -2.8610 c6         1 MQ2       0.162800
      3 C17         -6.3190    56.5850    -2.6160 c6         1 MQ2       0.162800
      4 C21         -8.5060    47.2880     0.3350 c3         1 MQ2      -0.061400
      5 C22         -9.8810    47.9240     0.1340 c3         1 MQ2      -0.095100
      6 C24         -4.6980    48.0170    -0.2940 c3         1 MQ2      -0.095100
      7 C26         -9.7170    58.0980    -2.0930 ca         1 MQ2      -0.074300
      8 C28        -11.2890    59.2370    -3.5470 ca         1 MQ2      -0.088000
      9 C11         -6.4840    51.5070    -3.4360 ca         1 MQ2      -0.145000
     10 C12         -5.8800    53.5460    -4.7800 c3         1 MQ2       0.213100
     11 C14         -7.8780    54.6390    -3.9640 c6         1 MQ2       0.163800
     12 C18         -5.7520    55.7110    -3.7210 c6         1 MQ2       0.163800
     13 C23         -5.9890    47.3630     0.1960 c3         1 MQ2      -0.061400
     14 C25         -8.3030    57.6770    -1.7830 c3         1 MQ2       0.211100
     15 C27         -9.9920    58.8530    -3.2340 ca         1 MQ2      -0.096000
     16 C29        -12.3230    58.8540    -2.7000 ca         1 MQ2      -0.007900
     17 C30        -12.0840    58.1080    -1.5580 ca         1 MQ2      -0.088000
     18 C31        -10.7750    57.7350    -1.2640 ca         1 MQ2      -0.096000
     19 C2          -7.3670    49.4180     0.7530 c          1 MQ2       0.567900
     20 C3          -7.2830    48.1570    -0.0850 c3         1 MQ2      -0.249000
     21 C4          -7.3710    48.4220    -1.6020 c          1 MQ2       0.619100
     22 N5          -7.0120    49.6660    -2.0130 ns         1 MQ2      -0.146000
     23 C6          -6.9320    50.1890    -3.3200 ca         1 MQ2      -0.031000
     24 C7          -7.2800    49.4720    -4.4690 ca         1 MQ2      -0.128000
     25 C8          -7.1760    50.0960    -5.7070 ca         1 MQ2      -0.087000
     26 C9          -6.7370    51.4100    -5.8180 ca         1 MQ2      -0.133000
     27 N13         -6.4460    54.4280    -3.7690 n3         1 MQ2      -0.728600
     28 N16         -7.7510    56.7960    -2.8100 n3         1 MQ2      -0.721600
     29 O19         -7.6990    47.5260    -2.3680 o          1 MQ2      -0.580100
     30 O20         -6.7080    49.6250     1.7460 o          1 MQ2      -0.502100
     31 BR         -14.1200    59.3680    -3.1300 br         1 MQ2      -0.113100
     32 H1          -9.5050    55.6870    -3.0500 h1         1 MQ2       0.040200
     33 H2          -8.3610    54.9830    -1.8960 h1         1 MQ2       0.040200
     34 H3          -6.1170    56.1100    -1.6410 h1         1 MQ2       0.040200
     35 H4          -5.8190    57.5550    -2.6240 h1         1 MQ2       0.040200
     36 H5          -8.4380    46.3690    -0.2480 hc         1 MQ2       0.059700
     37 H6          -8.3660    47.0180     1.3830 hc         1 MQ2       0.059700
     38 H7         -10.6590    47.1910     0.3540 hc         1 MQ2       0.040200
     39 H8         -10.0420    48.7800     0.7900 hc         1 MQ2       0.040200
     40 H9         -10.0220    48.2550    -0.8970 hc         1 MQ2       0.040200
     41 H10         -3.8390    47.4150     0.0060 hc         1 MQ2       0.040200
     42 H11         -4.6780    48.1000    -1.3830 hc         1 MQ2       0.040200
     43 H12         -4.5670    49.0170     0.1230 hc         1 MQ2       0.040200
     44 H13        -11.4910    59.8240    -4.4320 ha         1 MQ2       0.130000
     45 H14         -6.2290    52.0670    -2.5440 ha         1 MQ2       0.124000
     46 H15         -4.7940    53.5510    -4.6480 h1         1 MQ2       0.041200
     47 H16         -6.0770    53.9190    -5.7990 h1         1 MQ2       0.041200
     48 H17         -8.0740    55.1120    -4.9420 h1         1 MQ2       0.042200
     49 H18         -8.3830    53.6730    -3.9570 h1         1 MQ2       0.042200
     50 H19         -4.6910    55.5290    -3.5340 h1         1 MQ2       0.042200
     51 H20         -5.8380    56.2440    -4.6840 h1         1 MQ2       0.042200
     52 H21         -6.1020    46.3830    -0.2700 hc         1 MQ2       0.059700
     53 H22         -5.9360    47.2000     1.2730 hc         1 MQ2       0.059700
     54 H23         -7.6620    58.5610    -1.7340 h1         1 MQ2       0.040700
     55 H24         -8.2750    57.2010    -0.7900 h1         1 MQ2       0.040700
     56 H25         -9.1820    59.1420    -3.8920 ha         1 MQ2       0.121000
     57 H26        -12.8970    57.8150    -0.9080 ha         1 MQ2       0.130000
     58 H27        -10.5810    57.1440    -0.3770 ha         1 MQ2       0.121000
     59 H28         -8.1290    50.1540     0.4380 h4         1 MQ2      -0.005800
     60 H29         -6.7130    50.3160    -1.3020 hn         1 MQ2       0.149000
     61 H30         -7.6260    48.4570    -4.3900 ha         1 MQ2       0.150000
     62 H31         -7.4530    49.5440    -6.5970 ha         1 MQ2       0.116000
     63 H32         -6.6740    51.8840    -6.7900 ha         1 MQ2       0.113000
@<TRIPOS>BOND
     1     1     9 ar  
     2     1    10 1   
     3     1    26 ar  
     4     2    11 1   
     5     2    28 1   
     6     2    32 1   
     7     2    33 1   
     8     3    12 1   
     9     3    28 1   
    10     3    34 1   
    11     3    35 1   
    12     4     5 1   
    13     4    20 1   
    14     4    36 1   
    15     4    37 1   
    16     5    38 1   
    17     5    39 1   
    18     5    40 1   
    19     6    13 1   
    20     6    41 1   
    21     6    42 1   
    22     6    43 1   
    23     7    14 1   
    24     7    15 ar  
    25     7    18 ar  
    26     8    15 ar  
    27     8    16 ar  
    28     8    44 1   
    29     9    23 ar  
    30     9    45 1   
    31    10    27 1   
    32    10    46 1   
    33    10    47 1   
    34    11    27 1   
    35    11    48 1   
    36    11    49 1   
    37    12    27 1   
    38    12    50 1   
    39    12    51 1   
    40    13    20 1   
    41    13    52 1   
    42    13    53 1   
    43    14    28 1   
    44    14    54 1   
    45    14    55 1   
    46    15    56 1   
    47    16    17 ar  
    48    16    31 1   
    49    17    18 ar  
    50    17    57 1   
    51    18    58 1   
    52    19    20 1   
    53    19    30 2   
    54    19    59 1   
    55    20    21 1   
    56    21    22 1   
    57    21    29 2   
    58    22    23 1   
    59    22    60 1   
    60    23    24 ar  
    61    24    25 ar  
    62    24    61 1   
    63    25    26 ar  
    64    25    62 1   
    65    26    63 1   
@<TRIPOS>SUBSTRUCTURE
     1 MQ2         1 TEMP              0 ****  ****    0 ROOT
