@<TRIPOS>MOLECULE
MQ2
   63    65     1     0     0
SMALL
No Charge or Current Charge


@<TRIPOS>ATOM
      1 C10         -6.4440    52.1690    -4.3690 ca         1 MQ2      -0.059300
      2 C15         -8.5690    55.8140    -2.9130 c6         1 MQ2       0.162800
      3 C17         -6.3970    56.8630    -2.4900 c6         1 MQ2       0.162800
      4 C21         -8.3240    46.9520     0.4460 c3         1 MQ2      -0.061400
      5 C22         -9.6570    47.7330     0.3540 c3         1 MQ2      -0.095100
      6 C24         -4.4910    47.2650    -0.5630 c3         1 MQ2      -0.095100
      7 C26         -9.8780    58.4970    -2.3980 ca         1 MQ2      -0.074300
      8 C28        -11.3660    59.5890    -3.9980 ca         1 MQ2      -0.088000
      9 C11         -6.3970    51.3910    -3.1960 ca         1 MQ2      -0.145000
     10 C12         -5.7920    53.5510    -4.4010 c3         1 MQ2       0.213100
     11 C14         -7.8860    54.7850    -3.8700 c6         1 MQ2       0.163800
     12 C18         -5.7150    55.8360    -3.4510 c6         1 MQ2       0.163800
     13 C23         -5.8120    46.7470     0.0580 c3         1 MQ2      -0.061400
     14 C25         -8.4680    58.1100    -1.9570 c3         1 MQ2       0.211100
     15 C27        -10.0700    59.2320    -3.5850 ca         1 MQ2      -0.096000
     16 C29        -12.4760    59.2120    -3.2240 ca         1 MQ2      -0.007900
     17 C30        -12.2930    58.4790    -2.0390 ca         1 MQ2      -0.088000
     18 C31        -10.9970    58.1220    -1.6270 ca         1 MQ2      -0.096000
     19 C2          -6.8820    48.9820     0.7860 c          1 MQ2       0.567900
     20 C3          -7.0490    47.7050    -0.0730 c3         1 MQ2      -0.249000
     21 C4          -7.2320    48.0940    -1.5660 c          1 MQ2       0.619100
     22 N5          -6.9050    49.4040    -1.9160 ns         1 MQ2      -0.146000
     23 C6          -6.9910    50.1160    -3.1440 ca         1 MQ2      -0.031000
     24 C7          -7.6510    49.6230    -4.2920 ca         1 MQ2      -0.128000
     25 C8          -7.7020    50.3940    -5.4660 ca         1 MQ2      -0.087000
     26 C9          -7.1000    51.6610    -5.5060 ca         1 MQ2      -0.133000
     27 N13         -6.4530    54.5380    -3.5140 n3         1 MQ2      -0.728600
     28 N16         -7.8270    57.1130    -2.8470 n3         1 MQ2      -0.721600
     29 O19         -7.6570    47.2760    -2.3730 o          1 MQ2      -0.580100
     30 O20         -5.9590    49.1800     1.5650 o          1 MQ2      -0.502100
     31 Br         -14.2390    59.6960    -3.7850 br         1 MQ2      -0.113100
     32 H1          -9.6000    55.9760    -3.2620 h1         1 MQ2       0.040200
     33 H2          -8.6370    55.3670    -1.9110 h1         1 MQ2       0.040200
     34 H3          -6.3260    56.4790    -1.4620 h1         1 MQ2       0.040200
     35 H4          -5.8280    57.8030    -2.5220 h1         1 MQ2       0.040200
     36 H5          -8.4430    46.0120    -0.1100 hc         1 MQ2       0.059700
     37 H6          -8.1690    46.6600     1.4940 hc         1 MQ2       0.059700
     38 H7         -10.4880    47.0930     0.6750 hc         1 MQ2       0.040200
     39 H8          -9.6530    48.6160     1.0030 hc         1 MQ2       0.040200
     40 H9          -9.8630    48.0550    -0.6740 hc         1 MQ2       0.040200
     41 H10         -3.6840    46.5460    -0.3780 hc         1 MQ2       0.040200
     42 H11         -4.5830    47.3880    -1.6480 hc         1 MQ2       0.040200
     43 H12         -4.1880    48.2250    -0.1300 hc         1 MQ2       0.040200
     44 H13        -11.5080    60.1550    -4.9150 ha         1 MQ2       0.130000
     45 H14         -5.8940    51.7900    -2.3180 ha         1 MQ2       0.124000
     46 H15         -4.7420    53.4320    -4.1030 h1         1 MQ2       0.041200
     47 H16         -5.7860    53.9220    -5.4360 h1         1 MQ2       0.041200
     48 H17         -7.9600    55.1650    -4.9000 h1         1 MQ2       0.042200
     49 H18         -8.4610    53.8490    -3.8330 h1         1 MQ2       0.042200
     50 H19         -4.6830    55.6710    -3.1090 h1         1 MQ2       0.042200
     51 H20         -5.6520    56.2850    -4.4530 h1         1 MQ2       0.042200
     52 H21         -6.0480    45.7880    -0.4210 hc         1 MQ2       0.059700
     53 H22         -5.6370    46.5160     1.1180 hc         1 MQ2       0.059700
     54 H23         -7.8610    59.0250    -1.9310 h1         1 MQ2       0.040700
     55 H24         -8.5040    57.7260    -0.9280 h1         1 MQ2       0.040700
     56 H25         -9.2120    59.5210    -4.1880 ha         1 MQ2       0.121000
     57 H26        -13.1540    58.1860    -1.4420 ha         1 MQ2       0.130000
     58 H27        -10.8630    57.5520    -0.7100 ha         1 MQ2       0.121000
     59 H28         -7.6740    49.7520     0.6550 h4         1 MQ2      -0.005800
     60 H29         -6.5220    49.9580    -1.1620 hn         1 MQ2       0.149000
     61 H30         -8.1390    48.6530    -4.2940 ha         1 MQ2       0.150000
     62 H31         -8.2120    50.0080    -6.3460 ha         1 MQ2       0.116000
     63 H32         -7.1480    52.2510    -6.4190 ha         1 MQ2       0.113000
@<TRIPOS>BOND
     1     1     9 ar  
     2     1    10 1   
     3     1    26 ar  
     4     2    11 1   
     5     2    28 1   
     6     2    32 1   
     7     2    33 1   
     8     3    12 1   
     9     3    28 1   
    10     3    34 1   
    11     3    35 1   
    12     4     5 1   
    13     4    20 1   
    14     4    36 1   
    15     4    37 1   
    16     5    38 1   
    17     5    39 1   
    18     5    40 1   
    19     6    13 1   
    20     6    41 1   
    21     6    42 1   
    22     6    43 1   
    23     7    14 1   
    24     7    15 ar  
    25     7    18 ar  
    26     8    15 ar  
    27     8    16 ar  
    28     8    44 1   
    29     9    23 ar  
    30     9    45 1   
    31    10    27 1   
    32    10    46 1   
    33    10    47 1   
    34    11    27 1   
    35    11    48 1   
    36    11    49 1   
    37    12    27 1   
    38    12    50 1   
    39    12    51 1   
    40    13    20 1   
    41    13    52 1   
    42    13    53 1   
    43    14    28 1   
    44    14    54 1   
    45    14    55 1   
    46    15    56 1   
    47    16    17 ar  
    48    16    31 1   
    49    17    18 ar  
    50    17    57 1   
    51    18    58 1   
    52    19    20 1   
    53    19    30 2   
    54    19    59 1   
    55    20    21 1   
    56    21    22 1   
    57    21    29 2   
    58    22    23 1   
    59    22    60 1   
    60    23    24 ar  
    61    24    25 ar  
    62    24    61 1   
    63    25    26 ar  
    64    25    62 1   
    65    26    63 1   
@<TRIPOS>SUBSTRUCTURE
     1 MQ2         1 TEMP              0 ****  ****    0 ROOT
