@<TRIPOS>MOLECULE
MQ3
   40    41     1     0     0
SMALL
abcg2


@<TRIPOS>ATOM
      1 N1           7.8850     1.3670    17.7720 nb         1 MQ3      -0.645000
      2 C4          13.7530    -1.2930    23.8680 c6         1 MQ3      -0.072900
      3 C5          13.6250    -2.4290    22.8530 c6         1 MQ3      -0.075400
      4 C6          13.0590    -1.9130    21.5300 c6         1 MQ3      -0.072900
      5 C7          11.7300    -1.1850    21.7350 c6         1 MQ3      -0.072900
      6 C8           9.9210     1.1190    21.6320 c          1 MQ3       0.603100
      7 C10          8.5820     1.2010    18.8980 ca         1 MQ3       0.323900
      8 C13          6.6970     0.2280    20.0490 ca         1 MQ3      -0.091300
      9 C11          6.6100     0.9750    17.7630 ca         1 MQ3       0.310900
     10 C1          10.4800     0.6590    22.9700 c3         1 MQ3      -0.131700
     11 C2          11.8420    -0.0400    22.7520 c6         1 MQ3      -0.054700
     12 C9           8.0390     0.6470    20.0600 ca         1 MQ3      -0.075000
     13 C12          5.9900     0.4050    18.8660 ca         1 MQ3      -0.141000
     14 C14          6.0510    -0.3770    21.2600 c3         1 MQ3      -0.051800
     15 C           10.5570     1.8670    23.9100 c3         1 MQ3      -0.082100
     16 O           10.4520     2.0090    20.9770 o          1 MQ3      -0.579100
     17 C3          12.4250    -0.5620    24.0710 c6         1 MQ3      -0.072900
     18 H2          14.5050    -0.5780    23.5140 hc         1 MQ3       0.041700
     19 H3          12.9560    -3.1980    23.2560 hc         1 MQ3       0.039200
     20 H4          14.5950    -2.9050    22.6910 hc         1 MQ3       0.039200
     21 H5          12.9250    -2.7390    20.8260 hc         1 MQ3       0.041700
     22 H6          13.7800    -1.2250    21.0750 hc         1 MQ3       0.041700
     23 H7          11.3720    -0.8040    20.7750 hc         1 MQ3       0.038700
     24 H8          10.9760    -1.8990    22.0890 hc         1 MQ3       0.038700
     25 H9           9.6140     1.5180    18.8890 h4         1 MQ3       0.049100
     26 H11          6.0610     1.1190    16.8380 h4         1 MQ3       0.021100
     27 H12          9.7970    -0.0780    23.4030 hc         1 MQ3       0.045700
     28 H13         12.5310     0.7100    22.3460 hc         1 MQ3       0.067700
     29 H14          4.9530     0.1000    18.8070 ha         1 MQ3       0.120000
     30 H15          6.5240    -1.3260    21.5310 hc         1 MQ3       0.045700
     31 H16          6.1370     0.2850    22.1250 hc         1 MQ3       0.045700
     32 H17          4.9960    -0.5710    21.0740 hc         1 MQ3       0.045700
     33 H18         10.8300     1.5570    24.9180 hc         1 MQ3       0.045700
     34 H19         11.3000     2.5830    23.5560 hc         1 MQ3       0.045700
     35 H20          9.5920     2.3730    23.9660 hc         1 MQ3       0.045700
     36 H21         12.5670     0.2610    24.7730 hc         1 MQ3       0.038700
     37 H22         11.7000    -1.2470    24.5290 hc         1 MQ3       0.038700
     38 N            8.7900     0.4660    21.2330 ns         1 MQ3      -0.151000
     39 H1          14.1120    -1.6780    24.8260 hc         1 MQ3       0.041700
     40 H10          8.4310    -0.2150    21.8840 hn         1 MQ3       0.150000
@<TRIPOS>BOND
     1     1     7 ar  
     2     1     9 ar  
     3     2     3 1   
     4     2    17 1   
     5     2    18 1   
     6     2    39 1   
     7     3     4 1   
     8     3    19 1   
     9     3    20 1   
    10     4     5 1   
    11     4    21 1   
    12     4    22 1   
    13     5    11 1   
    14     5    23 1   
    15     5    24 1   
    16     6    10 1   
    17     6    16 2   
    18     6    38 1   
    19     7    12 ar  
    20     7    25 1   
    21     8    12 ar  
    22     8    13 ar  
    23     8    14 1   
    24     9    13 ar  
    25     9    26 1   
    26    10    11 1   
    27    10    15 1   
    28    10    27 1   
    29    11    17 1   
    30    11    28 1   
    31    12    38 1   
    32    13    29 1   
    33    14    30 1   
    34    14    31 1   
    35    14    32 1   
    36    15    33 1   
    37    15    34 1   
    38    15    35 1   
    39    17    36 1   
    40    17    37 1   
    41    38    40 1   
@<TRIPOS>SUBSTRUCTURE
     1 MQ3         1 TEMP              0 ****  ****    0 ROOT
