@<TRIPOS>MOLECULE
MQ3
   40    41     1     0     0
SMALL
No Charge or Current Charge


@<TRIPOS>ATOM
      1 N1           7.4200     1.9360    17.9060 nb         1 MQ3      -0.645000
      2 C4          13.7060    -1.4020    23.9850 c6         1 MQ3      -0.072900
      3 C5          13.4700    -2.6030    23.0420 c6         1 MQ3      -0.075400
      4 C6          12.9700    -2.1250    21.6600 c6         1 MQ3      -0.072900
      5 C7          11.6910    -1.2620    21.7930 c6         1 MQ3      -0.072900
      6 C8          10.0450     1.2610    21.4900 c          1 MQ3       0.603100
      7 C10          8.2230     1.7870    18.9870 ca         1 MQ3       0.323900
      8 C13          6.7690     0.1070    19.9710 ca         1 MQ3      -0.091300
      9 C11          6.3010     1.1830    17.8430 ca         1 MQ3       0.310900
     10 C1          10.5990     0.8270    22.8680 c3         1 MQ3      -0.131700
     11 C2          11.9050    -0.0400    22.7410 c6         1 MQ3      -0.054700
     12 C9           7.9470     0.8860    20.0480 ca         1 MQ3      -0.075000
     13 C12          5.9420     0.2670    18.8450 ca         1 MQ3      -0.141000
     14 C14          6.3900    -0.8870    21.0650 c3         1 MQ3      -0.051800
     15 C           10.7480     2.0790    23.7740 c3         1 MQ3      -0.082100
     16 O           10.6770     1.9950    20.7400 o          1 MQ3      -0.579100
     17 C3          12.4300    -0.5340    24.1240 c6         1 MQ3      -0.072900
     18 H2          14.5310    -0.7860    23.6020 hc         1 MQ3       0.041700
     19 H3          12.7340    -3.2870    23.4870 hc         1 MQ3       0.039200
     20 H4          14.4000    -3.1760    22.9260 hc         1 MQ3       0.039200
     21 H5          12.7690    -2.9920    21.0170 hc         1 MQ3       0.041700
     22 H6          13.7580    -1.5430    21.1610 hc         1 MQ3       0.041700
     23 H7          11.3930    -0.9280    20.7900 hc         1 MQ3       0.038700
     24 H8          10.8680    -1.8860    22.1690 hc         1 MQ3       0.038700
     25 H9           9.1030     2.4250    18.9900 h4         1 MQ3       0.049100
     26 H11          5.6710     1.3190    16.9640 h4         1 MQ3       0.021100
     27 H12          9.8330     0.1980    23.3400 hc         1 MQ3       0.045700
     28 H13         12.6710     0.6100    22.2940 hc         1 MQ3       0.067700
     29 H14          5.0270    -0.3100    18.7370 ha         1 MQ3       0.120000
     30 H15          7.1700    -1.6460    21.1970 hc         1 MQ3       0.045700
     31 H16          6.2450    -0.3800    22.0270 hc         1 MQ3       0.045700
     32 H17          5.4580    -1.4140    20.8290 hc         1 MQ3       0.045700
     33 H18         10.9320     1.8000    24.8170 hc         1 MQ3       0.045700
     34 H19         11.5750     2.7140    23.4330 hc         1 MQ3       0.045700
     35 H20          9.8290     2.6790    23.7550 hc         1 MQ3       0.045700
     36 H21         12.6650     0.3190    24.7740 hc         1 MQ3       0.038700
     37 H22         11.6480    -1.1110    24.6370 hc         1 MQ3       0.038700
     38 N            8.7950     0.7370    21.1850 ns         1 MQ3      -0.151000
     39 H1          14.0200    -1.7620    24.9740 hc         1 MQ3       0.041700
     40 H10          8.4140     0.1340    21.9030 hn         1 MQ3       0.150000
@<TRIPOS>BOND
     1     1     7 ar  
     2     1     9 ar  
     3     2     3 1   
     4     2    17 1   
     5     2    18 1   
     6     2    39 1   
     7     3     4 1   
     8     3    19 1   
     9     3    20 1   
    10     4     5 1   
    11     4    21 1   
    12     4    22 1   
    13     5    11 1   
    14     5    23 1   
    15     5    24 1   
    16     6    10 1   
    17     6    16 2   
    18     6    38 1   
    19     7    12 ar  
    20     7    25 1   
    21     8    12 ar  
    22     8    13 ar  
    23     8    14 1   
    24     9    13 ar  
    25     9    26 1   
    26    10    11 1   
    27    10    15 1   
    28    10    27 1   
    29    11    17 1   
    30    11    28 1   
    31    12    38 1   
    32    13    29 1   
    33    14    30 1   
    34    14    31 1   
    35    14    32 1   
    36    15    33 1   
    37    15    34 1   
    38    15    35 1   
    39    17    36 1   
    40    17    37 1   
    41    38    40 1   
@<TRIPOS>SUBSTRUCTURE
     1 MQ3         1 TEMP              0 ****  ****    0 ROOT
