@<TRIPOS>MOLECULE
MQ4
   25    25     1     0     0
SMALL
bcc


@<TRIPOS>ATOM
      1 C1           2.1710     0.9630     0.3300 c3         1 MQ4       0.676900
      2 C2          -1.9950    -1.4200     0.4900 c5         1 MQ4      -0.029200
      3 C3          -2.1790    -0.2370    -0.4640 c5         1 MQ4      -0.185700
      4 C9           1.9780    -0.8110    -1.4380 c          1 MQ4       0.594900
      5 C4          -0.8490     0.5320    -0.4100 c5         1 MQ4       0.006800
      6 C5           0.1330    -0.5170     0.0520 c2         1 MQ4      -0.286400
      7 C6          -0.5070    -1.6060     0.5290 c2         1 MQ4       0.121800
      8 N10          0.0180    -2.7780     0.9950 nv         1 MQ4      -0.832600
      9 C8           1.6290    -0.4040    -0.0220 c3         1 MQ4      -0.177500
     10 F1           3.5130     0.9650     0.3130 f          1 MQ4      -0.240633
     11 F3           1.7830     1.9170    -0.5280 f          1 MQ4      -0.240633
     12 F4           1.7890     1.3510     1.5500 f          1 MQ4      -0.240633
     13 O6           2.5530    -1.8340    -1.7120 o          1 MQ4      -0.527100
     14 H1          -2.3630    -1.1960     1.4970 hc         1 MQ4       0.055700
     15 H2          -2.5150    -2.3230     0.1620 hc         1 MQ4       0.055700
     16 H3          -2.2640    -0.6540    -1.4760 hc         1 MQ4       0.032700
     17 H4           1.5930    -0.1410    -2.2250 h4         1 MQ4       0.011200
     18 H5          -0.6010     0.9660    -1.3820 hc         1 MQ4       0.048700
     19 H6          -0.9040     1.3700     0.2940 hc         1 MQ4       0.048700
     20 H7           0.9810    -2.7810     1.2900 hn         1 MQ4       0.387300
     21 H8          -0.5710    -3.3060     1.6190 hn         1 MQ4       0.387300
     22 H9           2.1110    -1.1100     0.6620 hc         1 MQ4       0.075700
     23 C7          -3.4360     0.6100    -0.2350 c          1 MQ4       0.933600
     24 O11         -3.4070     1.7800    -0.6690 o          1 MQ4      -0.838800
     25 O12         -4.3990     0.0550     0.3320 o          1 MQ4      -0.838800
@<TRIPOS>BOND
     1     1     9 1   
     2     1    10 1   
     3     1    11 1   
     4     1    12 1   
     5     2     3 1   
     6     2     7 1   
     7     2    14 1   
     8     2    15 1   
     9     3     5 1   
    10     3    16 1   
    11     3    23 1   
    12     4     9 1   
    13     4    13 2   
    14     4    17 1   
    15     5     6 1   
    16     5    18 1   
    17     5    19 1   
    18     6     7 2   
    19     6     9 1   
    20     7     8 1   
    21     8    20 1   
    22     8    21 1   
    23     9    22 1   
    24    23    24 1   
    25    23    25 1   
@<TRIPOS>SUBSTRUCTURE
     1 MQ4         1 TEMP              0 ****  ****    0 ROOT
