@<TRIPOS>MOLECULE
MQ4
   25    25     1     0     0
SMALL
No Charge or Current Charge


@<TRIPOS>ATOM
      1 C1           2.2020     0.7500     0.6060 c3         1 MQ4       0.313000
      2 C2          -2.0960    -1.3940     0.5060 c5         1 MQ4      -0.029200
      3 C3          -2.2350    -0.3060    -0.6080 c5         1 MQ4      -0.185700
      4 C9           2.0790    -0.4710    -1.5940 c          1 MQ4       0.594900
      5 C4          -0.8660     0.4440    -0.5220 c5         1 MQ4       0.006800
      6 C5           0.0900    -0.6200     0.0010 c2         1 MQ4      -0.286400
      7 C6          -0.6010    -1.6130     0.5640 c2         1 MQ4       0.121800
      8 N10          0.0050    -2.7180     1.1380 nv         1 MQ4      -0.943000
      9 C8           1.6210    -0.4840    -0.1280 c3         1 MQ4      -0.177500
     10 F1           3.5540     0.7300     0.5800 f          1 MQ4      -0.119333
     11 F3           1.7970     1.9100     0.0380 f          1 MQ4      -0.119333
     12 F4           1.8180     0.7650     1.9030 f          1 MQ4      -0.119333
     13 O6           2.7610    -1.3600    -2.0960 o          1 MQ4      -0.527100
     14 H1          -2.4660    -1.0580     1.4810 hc         1 MQ4       0.055700
     15 H2          -2.6390    -2.3100     0.2440 hc         1 MQ4       0.055700
     16 H3          -2.3410    -0.7830    -1.5900 hc         1 MQ4       0.032700
     17 H4           1.7520     0.4060    -2.1960 h4         1 MQ4       0.011200
     18 H5          -0.5680     0.8280    -1.5050 hc         1 MQ4       0.048700
     19 H6          -0.8930     1.3000     0.1630 hc         1 MQ4       0.048700
     20 H7           0.9890    -2.6250     1.3740 hn         1 MQ4       0.442500
     21 H8          -0.5520    -3.2860     1.7730 hn         1 MQ4       0.442500
     22 H9           2.1000    -1.3610     0.3180 hc         1 MQ4       0.075700
     23 C7          -3.4380     0.6430    -0.3570 c          1 MQ4       0.723000
     24 O11         -4.2940     0.7360    -1.2250 o          1 MQ4      -0.733500
     25 O12         -3.5150     1.2700     0.6890 o          1 MQ4      -0.733500
@<TRIPOS>BOND
     1     1     9 1   
     2     1    10 1   
     3     1    11 1   
     4     1    12 1   
     5     2     3 1   
     6     2     7 1   
     7     2    14 1   
     8     2    15 1   
     9     3     5 1   
    10     3    16 1   
    11     3    23 1   
    12     4     9 1   
    13     4    13 2   
    14     4    17 1   
    15     5     6 1   
    16     5    18 1   
    17     5    19 1   
    18     6     7 2   
    19     6     9 1   
    20     7     8 1   
    21     8    20 1   
    22     8    21 1   
    23     9    22 1   
    24    23    24 1   
    25    23    25 1   
@<TRIPOS>SUBSTRUCTURE
     1 MQ4         1 TEMP              0 ****  ****    0 ROOT
