@<TRIPOS>MOLECULE
MQ7
  112   113     1     0     0
SMALL
No Charge or Current Charge


@<TRIPOS>ATOM
      1 C1           2.2260    -0.6640   -11.9870 c          1 MQ7       0.574900
      2 O1           3.3150    -1.2040   -12.1580 o          1 MQ7      -0.508100
      3 C2           1.0470    -1.3890   -11.4150 cc         1 MQ7      -0.132400
      4 C2M          1.3310    -2.8370   -11.0370 c3         1 MQ7      -0.059900
      5 C3          -0.1980    -0.7740   -11.2780 cd         1 MQ7      -0.134400
      6 C4          -0.4060     0.6620   -11.6520 c          1 MQ7       0.576900
      7 O4          -1.4910     1.2230   -11.5350 o          1 MQ7      -0.505100
      8 C5           0.7780     1.4220   -12.1920 ca         1 MQ7      -0.133600
      9 C6           0.6380     2.7850   -12.5470 ca         1 MQ7      -0.066000
     10 C7           1.7270     3.5090   -13.0550 ca         1 MQ7      -0.098000
     11 C8           2.9690     2.8820   -13.2170 ca         1 MQ7      -0.099000
     12 C9           3.1210     1.5310   -12.8690 ca         1 MQ7      -0.066000
     13 C10          2.0320     0.7880   -12.3540 ca         1 MQ7      -0.135600
     14 C11         -1.4290    -1.4840   -10.7340 c3         1 MQ7       0.003000
     15 C12         -1.4980    -1.3620    -9.2190 c2         1 MQ7      -0.233200
     16 C13         -2.3880    -0.6900    -8.4620 c2         1 MQ7      -0.089400
     17 C14         -3.5730     0.1210    -8.9760 c3         1 MQ7      -0.056900
     18 C15         -2.2910    -0.6850    -6.9430 c3         1 MQ7      -0.041200
     19 C16         -1.6800     0.6160    -6.3800 c3         1 MQ7      -0.036200
     20 C17         -1.4820     0.5520    -4.8760 c2         1 MQ7      -0.222200
     21 C18         -0.4200     0.0610    -4.2080 c2         1 MQ7      -0.112400
     22 C19          0.8120    -0.5590    -4.8560 c3         1 MQ7      -0.054900
     23 C20         -0.3410     0.0960    -2.6880 c3         1 MQ7      -0.038200
     24 C21         -0.6560    -1.2660    -2.0320 c3         1 MQ7      -0.037200
     25 C22         -0.6680    -1.1840    -0.5160 c2         1 MQ7      -0.221200
     26 C23         -1.7010    -0.8480     0.2800 c2         1 MQ7      -0.111400
     27 C24         -3.0910    -0.4560    -0.2080 c3         1 MQ7      -0.054900
     28 C25         -1.5780    -0.8440     1.7980 c3         1 MQ7      -0.038200
     29 C26         -1.4130     0.5740     2.3900 c3         1 MQ7      -0.037200
     30 C27         -1.2030     0.5490     3.8970 c2         1 MQ7      -0.224200
     31 C28         -0.3880     1.3280     4.6350 c2         1 MQ7      -0.112400
     32 C29          0.4820     2.4580     4.0960 c3         1 MQ7      -0.054900
     33 C30         -0.2700     1.1590     6.1450 c3         1 MQ7      -0.035200
     34 C31          1.0470     0.4810     6.5800 c3         1 MQ7      -0.037200
     35 C32          1.0970     0.2340     8.0770 c2         1 MQ7      -0.221200
     36 C33          0.6200    -0.8300     8.7510 c2         1 MQ7      -0.112400
     37 C34         -0.1000    -2.0160     8.1190 c3         1 MQ7      -0.054900
     38 C35          0.7750    -0.9620    10.2600 c3         1 MQ7      -0.038200
     39 C36         -0.5170    -0.6230    11.0360 c3         1 MQ7      -0.035200
     40 C37         -0.3160    -0.6710    12.5430 c2         1 MQ7      -0.222200
     41 C38         -0.8510     0.1390    13.4780 c2         1 MQ7      -0.111400
     42 C39         -1.8330     1.2730    13.2060 c3         1 MQ7      -0.054900
     43 C40         -0.5270    -0.0220    14.9570 c3         1 MQ7      -0.038200
     44 C41          0.4320     1.0640    15.4910 c3         1 MQ7      -0.035200
     45 C42          0.8190     0.8270    16.9400 c2         1 MQ7      -0.224200
     46 C43          1.8420     0.0850    17.4040 c2         1 MQ7      -0.112400
     47 C44          2.1410    -0.0510    18.8860 c3         1 MQ7      -0.055900
     48 C45          2.8180    -0.7070    16.5450 c3         1 MQ7      -0.055900
     49 H2M1         2.3350    -2.9620   -10.6160 hc         1 MQ7       0.056367
     50 H2M2         0.6390    -3.2140   -10.2770 hc         1 MQ7       0.056367
     51 H2M3         1.2510    -3.4890   -11.9150 hc         1 MQ7       0.056367
     52 H6          -0.3190     3.2910   -12.4300 ha         1 MQ7       0.138000
     53 H7           1.6060     4.5570   -13.3240 ha         1 MQ7       0.121000
     54 H8           3.8140     3.4410   -13.6120 ha         1 MQ7       0.121000
     55 H9           4.0950     1.0630   -13.0020 ha         1 MQ7       0.138000
     56 H111        -1.4100    -2.5450   -11.0110 hc         1 MQ7       0.062700
     57 H112        -2.3380    -1.1180   -11.2200 hc         1 MQ7       0.062700
     58 H12         -0.6930    -1.9050    -8.7220 ha         1 MQ7       0.166000
     59 H141        -3.4800     1.1770    -8.6980 hc         1 MQ7       0.043700
     60 H142        -3.6820     0.0920   -10.0640 hc         1 MQ7       0.043700
     61 H143        -4.5140    -0.2500    -8.5530 hc         1 MQ7       0.043700
     62 H151        -1.6670    -1.5230    -6.6090 hc         1 MQ7       0.045700
     63 H152        -3.2770    -0.8530    -6.4910 hc         1 MQ7       0.045700
     64 H161        -2.3300     1.4640    -6.6260 hc         1 MQ7       0.047700
     65 H162        -0.7290     0.8150    -6.8890 hc         1 MQ7       0.047700
     66 H17         -2.3170     0.9770    -4.3170 ha         1 MQ7       0.165000
     67 H191         0.7470    -0.5960    -5.9480 hc         1 MQ7       0.039033
     68 H192         1.7160     0.0090    -4.6040 hc         1 MQ7       0.039033
     69 H193         0.9640    -1.5900    -4.5160 hc         1 MQ7       0.039033
     70 H201        -1.0560     0.8310    -2.2980 hc         1 MQ7       0.045200
     71 H202         0.6480     0.4400    -2.3610 hc         1 MQ7       0.045200
     72 H211         0.0880    -2.0070    -2.3500 hc         1 MQ7       0.045700
     73 H212        -1.6180    -1.6320    -2.4100 hc         1 MQ7       0.045700
     74 H22          0.2910    -1.4500    -0.0670 ha         1 MQ7       0.164000
     75 H241        -3.8490    -1.1530     0.1690 hc         1 MQ7       0.039367
     76 H242        -3.3650     0.5480     0.1340 hc         1 MQ7       0.039367
     77 H243        -3.1730    -0.4490    -1.2990 hc         1 MQ7       0.039367
     78 H251        -0.7070    -1.4380     2.1000 hc         1 MQ7       0.044200
     79 H252        -2.4470    -1.3350     2.2520 hc         1 MQ7       0.044200
     80 H261        -2.3060     1.1660     2.1600 hc         1 MQ7       0.045700
     81 H262        -0.5750     1.0570     1.8760 hc         1 MQ7       0.045700
     82 H27         -1.7930    -0.2210     4.3970 ha         1 MQ7       0.167000
     83 H291         0.2750     2.6950     3.0480 hc         1 MQ7       0.039033
     84 H292         0.3190     3.3830     4.6610 hc         1 MQ7       0.039033
     85 H293         1.5470     2.2090     4.1690 hc         1 MQ7       0.039033
     86 H301        -1.1030     0.5500     6.5170 hc         1 MQ7       0.046200
     87 H302        -0.3650     2.1290     6.6490 hc         1 MQ7       0.046200
     88 H311         1.8970     1.1080     6.2860 hc         1 MQ7       0.045700
     89 H312         1.1660    -0.4580     6.0260 hc         1 MQ7       0.045700
     90 H32          1.6000     1.0330     8.6240 ha         1 MQ7       0.164000
     91 H341         0.4490    -2.9480     8.2970 hc         1 MQ7       0.039033
     92 H342        -1.1060    -2.1390     8.5350 hc         1 MQ7       0.039033
     93 H343        -0.2200    -1.9140     7.0350 hc         1 MQ7       0.039033
     94 H351         1.5640    -0.2860    10.6110 hc         1 MQ7       0.044700
     95 H352         1.1090    -1.9740    10.5220 hc         1 MQ7       0.044700
     96 H361        -1.3030    -1.3350    10.7540 hc         1 MQ7       0.045700
     97 H362        -0.8570     0.3650    10.7080 hc         1 MQ7       0.045700
     98 H37          0.3670    -1.4620    12.8580 ha         1 MQ7       0.164000
     99 H391        -2.1990     1.2840    12.1740 hc         1 MQ7       0.038700
    100 H392        -2.7180     1.1880    13.8480 hc         1 MQ7       0.038700
    101 H393        -1.3760     2.2500    13.4000 hc         1 MQ7       0.038700
    102 H401        -0.0600    -0.9990    15.1310 hc         1 MQ7       0.044700
    103 H402        -1.4470    -0.0220    15.5550 hc         1 MQ7       0.044700
    104 H411        -0.0410     2.0490    15.3980 hc         1 MQ7       0.045200
    105 H412         1.3220     1.1010    14.8520 hc         1 MQ7       0.045200
    106 H42          0.1730     1.3530    17.6460 ha         1 MQ7       0.164000
    107 H441         3.1490     0.3110    19.1210 hc         1 MQ7       0.038367
    108 H442         1.4360     0.5240    19.4990 hc         1 MQ7       0.038367
    109 H443         2.0780    -1.0970    19.2080 hc         1 MQ7       0.038367
    110 H451         3.8400    -0.3300    16.6650 hc         1 MQ7       0.038367
    111 H452         2.8190    -1.7660    16.8300 hc         1 MQ7       0.038367
    112 H453         2.5770    -0.6660    15.4770 hc         1 MQ7       0.038367
@<TRIPOS>BOND
     1     1     2 2   
     2     1     3 1   
     3     1    13 1   
     4     3     4 1   
     5     3     5 2   
     6     4    49 1   
     7     4    50 1   
     8     4    51 1   
     9     5     6 1   
    10     5    14 1   
    11     6     7 2   
    12     6     8 1   
    13     8     9 ar  
    14     8    13 ar  
    15     9    10 ar  
    16     9    52 1   
    17    10    11 ar  
    18    10    53 1   
    19    11    12 ar  
    20    11    54 1   
    21    12    13 ar  
    22    12    55 1   
    23    14    15 1   
    24    14    56 1   
    25    14    57 1   
    26    15    16 2   
    27    15    58 1   
    28    16    17 1   
    29    16    18 1   
    30    17    59 1   
    31    17    60 1   
    32    17    61 1   
    33    18    19 1   
    34    18    62 1   
    35    18    63 1   
    36    19    20 1   
    37    19    64 1   
    38    19    65 1   
    39    20    21 2   
    40    20    66 1   
    41    21    22 1   
    42    21    23 1   
    43    22    67 1   
    44    22    68 1   
    45    22    69 1   
    46    23    24 1   
    47    23    70 1   
    48    23    71 1   
    49    24    25 1   
    50    24    72 1   
    51    24    73 1   
    52    25    26 2   
    53    25    74 1   
    54    26    27 1   
    55    26    28 1   
    56    27    75 1   
    57    27    76 1   
    58    27    77 1   
    59    28    29 1   
    60    28    78 1   
    61    28    79 1   
    62    29    30 1   
    63    29    80 1   
    64    29    81 1   
    65    30    31 2   
    66    30    82 1   
    67    31    32 1   
    68    31    33 1   
    69    32    83 1   
    70    32    84 1   
    71    32    85 1   
    72    33    34 1   
    73    33    86 1   
    74    33    87 1   
    75    34    35 1   
    76    34    88 1   
    77    34    89 1   
    78    35    36 2   
    79    35    90 1   
    80    36    37 1   
    81    36    38 1   
    82    37    91 1   
    83    37    92 1   
    84    37    93 1   
    85    38    39 1   
    86    38    94 1   
    87    38    95 1   
    88    39    40 1   
    89    39    96 1   
    90    39    97 1   
    91    40    41 2   
    92    40    98 1   
    93    41    42 1   
    94    41    43 1   
    95    42    99 1   
    96    42   100 1   
    97    42   101 1   
    98    43    44 1   
    99    43   102 1   
   100    43   103 1   
   101    44    45 1   
   102    44   104 1   
   103    44   105 1   
   104    45    46 2   
   105    45   106 1   
   106    46    47 1   
   107    46    48 1   
   108    47   107 1   
   109    47   108 1   
   110    47   109 1   
   111    48   110 1   
   112    48   111 1   
   113    48   112 1   
@<TRIPOS>SUBSTRUCTURE
     1 MQ7         1 TEMP              0 ****  ****    0 ROOT
