@<TRIPOS>MOLECULE
MQ7
  112   113     1     0     0
SMALL
abcg2


@<TRIPOS>ATOM
      1 C1           1.4840    -1.4590   -12.0610 c          1 MQ7       0.574900
      2 O1           2.1730    -2.4140   -12.3580 o          1 MQ7      -0.508100
      3 C2           0.1180    -1.6530   -11.5040 cc         1 MQ7      -0.132400
      4 C2M         -0.3350    -3.0650   -11.2930 c3         1 MQ7      -0.059900
      5 C3          -0.6670    -0.5940   -11.2210 cd         1 MQ7      -0.134400
      6 C4          -0.1910     0.7970   -11.4220 c          1 MQ7       0.576900
      7 O4          -0.9160     1.7400   -11.1790 o          1 MQ7      -0.505100
      8 C5           1.1830     1.0130   -11.9310 ca         1 MQ7      -0.133600
      9 C6           1.6660     2.3050   -12.1050 ca         1 MQ7      -0.066000
     10 C7           2.9490     2.5050   -12.5890 ca         1 MQ7      -0.098000
     11 C8           3.7530     1.4160   -12.9050 ca         1 MQ7      -0.099000
     12 C9           3.2760     0.1260   -12.7340 ca         1 MQ7      -0.066000
     13 C10          1.9900    -0.0790   -12.2450 ca         1 MQ7      -0.135600
     14 C11         -2.0410    -0.7450   -10.6300 c3         1 MQ7       0.003000
     15 C12         -1.9560    -0.6510    -9.1310 c2         1 MQ7      -0.233200
     16 C13         -2.4810     0.2810    -8.3330 c2         1 MQ7      -0.089400
     17 C14         -3.3170     1.4370    -8.7930 c3         1 MQ7      -0.056900
     18 C15         -2.2400     0.2140    -6.8480 c3         1 MQ7      -0.041200
     19 C16         -1.1970     1.2370    -6.3660 c3         1 MQ7      -0.036200
     20 C17         -1.0610     1.2020    -4.8760 c2         1 MQ7      -0.222200
     21 C18         -0.0460     0.7230    -4.1500 c2         1 MQ7      -0.112400
     22 C19          1.2190     0.1570    -4.7250 c3         1 MQ7      -0.054900
     23 C20         -0.1350     0.6960    -2.6470 c3         1 MQ7      -0.038200
     24 C21         -0.2430    -0.7310    -2.0850 c3         1 MQ7      -0.037200
     25 C22         -0.2760    -0.7460    -0.5900 c2         1 MQ7      -0.221200
     26 C23         -1.2770    -1.1190     0.2120 c2         1 MQ7      -0.111400
     27 C24         -2.6070    -1.6230    -0.2660 c3         1 MQ7      -0.054900
     28 C25         -1.1110    -1.0630     1.7090 c3         1 MQ7      -0.038200
     29 C26         -1.9930    -0.0060     2.3940 c3         1 MQ7      -0.037200
     30 C27         -1.8180    -0.0360     3.8800 c2         1 MQ7      -0.224200
     31 C28         -1.2430     0.9070     4.6280 c2         1 MQ7      -0.112400
     32 C29         -0.7090     2.1950     4.0500 c3         1 MQ7      -0.054900
     33 C30         -1.0640     0.7130     6.1080 c3         1 MQ7      -0.035200
     34 C31          0.4070     0.4760     6.4870 c3         1 MQ7      -0.037200
     35 C32          0.5940     0.3740     7.9680 c2         1 MQ7      -0.221200
     36 C33          0.9210    -0.7030     8.6870 c2         1 MQ7      -0.112400
     37 C34          1.1950    -2.0610     8.1100 c3         1 MQ7      -0.054900
     38 C35          1.0390    -0.6060    10.1860 c3         1 MQ7      -0.038200
     39 C36         -0.0950    -1.3230    10.9360 c3         1 MQ7      -0.035200
     40 C37          0.1050    -1.2560    12.4170 c2         1 MQ7      -0.222200
     41 C38         -0.6600    -0.6630    13.3370 c2         1 MQ7      -0.111400
     42 C39         -1.9450     0.0550    13.0430 c3         1 MQ7      -0.054900
     43 C40         -0.2460    -0.6800    14.7860 c3         1 MQ7      -0.038200
     44 C41          0.1610     0.7050    15.3170 c3         1 MQ7      -0.035200
     45 C42          0.5260     0.6530    16.7670 c2         1 MQ7      -0.224200
     46 C43          1.7290     0.8260    17.3220 c2         1 MQ7      -0.112400
     47 C44          1.9150     0.7230    18.8080 c3         1 MQ7      -0.055900
     48 C45          2.9870     1.1290    16.5630 c3         1 MQ7      -0.055900
     49 H2M1         0.4660    -3.7750   -11.4750 hc         1 MQ7       0.056367
     50 H2M2        -0.6930    -3.2190   -10.2750 hc         1 MQ7       0.056367
     51 H2M3        -1.1580    -3.3140   -11.9650 hc         1 MQ7       0.056367
     52 H6           1.0410     3.1540   -11.8630 ha         1 MQ7       0.138000
     53 H7           3.3230     3.5110   -12.7230 ha         1 MQ7       0.121000
     54 H8           4.7530     1.5750   -13.2840 ha         1 MQ7       0.121000
     55 H9           3.9040    -0.7200   -12.9800 ha         1 MQ7       0.138000
     56 H111        -2.4560    -1.7140   -10.9120 hc         1 MQ7       0.062700
     57 H112        -2.7080     0.0100   -11.0420 hc         1 MQ7       0.062700
     58 H12         -1.3780    -1.4450    -8.6630 ha         1 MQ7       0.166000
     59 H141        -2.8970     2.3840    -8.4470 hc         1 MQ7       0.043700
     60 H142        -3.4150     1.5000    -9.8730 hc         1 MQ7       0.043700
     61 H143        -4.3200     1.3690    -8.3650 hc         1 MQ7       0.043700
     62 H151        -1.8990    -0.7850    -6.5660 hc         1 MQ7       0.045700
     63 H152        -3.1800     0.3890    -6.3140 hc         1 MQ7       0.045700
     64 H161        -1.5000     2.2410    -6.6760 hc         1 MQ7       0.047700
     65 H162        -0.2490     1.0300    -6.8670 hc         1 MQ7       0.047700
     66 H17         -1.9270     1.5770    -4.3340 ha         1 MQ7       0.165000
     67 H191         1.3190     0.3240    -5.7950 hc         1 MQ7       0.039033
     68 H192         2.0910     0.5990    -4.2360 hc         1 MQ7       0.039033
     69 H193         1.2850    -0.9200    -4.5580 hc         1 MQ7       0.039033
     70 H201        -1.0030     1.2700    -2.3120 hc         1 MQ7       0.045200
     71 H202         0.7490     1.1790    -2.2150 hc         1 MQ7       0.045200
     72 H211         0.6200    -1.3140    -2.4220 hc         1 MQ7       0.045700
     73 H212        -1.1230    -1.2120    -2.5150 hc         1 MQ7       0.045700
     74 H22          0.6390    -0.3950    -0.1150 ha         1 MQ7       0.164000
     75 H241        -2.7900    -2.6350     0.1070 hc         1 MQ7       0.039367
     76 H242        -3.4230    -1.0040     0.1130 hc         1 MQ7       0.039367
     77 H243        -2.6960    -1.6490    -1.3500 hc         1 MQ7       0.039367
     78 H251        -0.0680    -0.8570     1.9610 hc         1 MQ7       0.044200
     79 H252        -1.3500    -2.0440     2.1360 hc         1 MQ7       0.044200
     80 H261        -3.0430    -0.1940     2.1500 hc         1 MQ7       0.045700
     81 H262        -1.7500     0.9780     1.9890 hc         1 MQ7       0.045700
     82 H27         -2.1700    -0.9390     4.3750 ha         1 MQ7       0.167000
     83 H291        -1.5080     2.8050     3.6240 hc         1 MQ7       0.039033
     84 H292        -0.2170     2.7980     4.8120 hc         1 MQ7       0.039033
     85 H293         0.0170     2.0210     3.2540 hc         1 MQ7       0.039033
     86 H301        -1.6570    -0.1380     6.4520 hc         1 MQ7       0.046200
     87 H302        -1.4310     1.5930     6.6470 hc         1 MQ7       0.046200
     88 H311         1.0100     1.3090     6.1110 hc         1 MQ7       0.045700
     89 H312         0.7630    -0.4160     5.9700 hc         1 MQ7       0.045700
     90 H32          0.4150     1.3000     8.5130 ha         1 MQ7       0.164000
     91 H341         2.2090    -2.3850     8.3560 hc         1 MQ7       0.039033
     92 H342         0.5220    -2.8110     8.5320 hc         1 MQ7       0.039033
     93 H343         1.0870    -2.1030     7.0280 hc         1 MQ7       0.039033
     94 H351         1.0510     0.4430    10.4910 hc         1 MQ7       0.044700
     95 H352         1.9950    -1.0350    10.5050 hc         1 MQ7       0.044700
     96 H361        -0.1220    -2.3750    10.6330 hc         1 MQ7       0.045700
     97 H362        -1.0490    -0.8900    10.6330 hc         1 MQ7       0.045700
     98 H37          1.0140    -1.7440    12.7680 ha         1 MQ7       0.164000
     99 H391        -2.2490    -0.0170    12.0010 hc         1 MQ7       0.038700
    100 H392        -2.7570    -0.3470    13.6530 hc         1 MQ7       0.038700
    101 H393        -1.8700     1.1170    13.2870 hc         1 MQ7       0.038700
    102 H401         0.5940    -1.3650    14.9230 hc         1 MQ7       0.044700
    103 H402        -1.0670    -1.0640    15.4010 hc         1 MQ7       0.044700
    104 H411        -0.6740     1.4010    15.1910 hc         1 MQ7       0.045200
    105 H412         0.9790     1.0910    14.7060 hc         1 MQ7       0.045200
    106 H42         -0.3030     0.4250    17.4340 ha         1 MQ7       0.164000
    107 H441         2.2910     1.6630    19.2220 hc         1 MQ7       0.038367
    108 H442         0.9860     0.4770    19.3230 hc         1 MQ7       0.038367
    109 H443         2.6540    -0.0420    19.0590 hc         1 MQ7       0.038367
    110 H451         3.4260     2.0700    16.9050 hc         1 MQ7       0.038367
    111 H452         3.7360     0.3550    16.7470 hc         1 MQ7       0.038367
    112 H453         2.8440     1.2010    15.4870 hc         1 MQ7       0.038367
@<TRIPOS>BOND
     1     1     2 2   
     2     1     3 1   
     3     1    13 1   
     4     3     4 1   
     5     3     5 2   
     6     4    49 1   
     7     4    50 1   
     8     4    51 1   
     9     5     6 1   
    10     5    14 1   
    11     6     7 2   
    12     6     8 1   
    13     8     9 ar  
    14     8    13 ar  
    15     9    10 ar  
    16     9    52 1   
    17    10    11 ar  
    18    10    53 1   
    19    11    12 ar  
    20    11    54 1   
    21    12    13 ar  
    22    12    55 1   
    23    14    15 1   
    24    14    56 1   
    25    14    57 1   
    26    15    16 2   
    27    15    58 1   
    28    16    17 1   
    29    16    18 1   
    30    17    59 1   
    31    17    60 1   
    32    17    61 1   
    33    18    19 1   
    34    18    62 1   
    35    18    63 1   
    36    19    20 1   
    37    19    64 1   
    38    19    65 1   
    39    20    21 2   
    40    20    66 1   
    41    21    22 1   
    42    21    23 1   
    43    22    67 1   
    44    22    68 1   
    45    22    69 1   
    46    23    24 1   
    47    23    70 1   
    48    23    71 1   
    49    24    25 1   
    50    24    72 1   
    51    24    73 1   
    52    25    26 2   
    53    25    74 1   
    54    26    27 1   
    55    26    28 1   
    56    27    75 1   
    57    27    76 1   
    58    27    77 1   
    59    28    29 1   
    60    28    78 1   
    61    28    79 1   
    62    29    30 1   
    63    29    80 1   
    64    29    81 1   
    65    30    31 2   
    66    30    82 1   
    67    31    32 1   
    68    31    33 1   
    69    32    83 1   
    70    32    84 1   
    71    32    85 1   
    72    33    34 1   
    73    33    86 1   
    74    33    87 1   
    75    34    35 1   
    76    34    88 1   
    77    34    89 1   
    78    35    36 2   
    79    35    90 1   
    80    36    37 1   
    81    36    38 1   
    82    37    91 1   
    83    37    92 1   
    84    37    93 1   
    85    38    39 1   
    86    38    94 1   
    87    38    95 1   
    88    39    40 1   
    89    39    96 1   
    90    39    97 1   
    91    40    41 2   
    92    40    98 1   
    93    41    42 1   
    94    41    43 1   
    95    42    99 1   
    96    42   100 1   
    97    42   101 1   
    98    43    44 1   
    99    43   102 1   
   100    43   103 1   
   101    44    45 1   
   102    44   104 1   
   103    44   105 1   
   104    45    46 2   
   105    45   106 1   
   106    46    47 1   
   107    46    48 1   
   108    47   107 1   
   109    47   108 1   
   110    47   109 1   
   111    48   110 1   
   112    48   111 1   
   113    48   112 1   
@<TRIPOS>SUBSTRUCTURE
     1 MQ7         1 TEMP              0 ****  ****    0 ROOT
