@<TRIPOS>MOLECULE
MQ8
  125   126     1     0     0
SMALL
bcc


@<TRIPOS>ATOM
      1 C1           2.9430     1.4300    -9.4110 c          1 MQ8       0.571900
      2 O1           3.9420     2.1120    -9.2990 o          1 MQ8      -0.509100
      3 C2           2.9020     0.0680    -8.8160 cc         1 MQ8      -0.132400
      4 C2M          4.1400    -0.3250    -8.0750 c3         1 MQ8      -0.055900
      5 C3           1.8130    -0.7150    -8.9510 cd         1 MQ8      -0.131400
      6 C4           0.6010    -0.2210    -9.6570 c          1 MQ8       0.575900
      7 O4          -0.3840    -0.9230    -9.7560 o          1 MQ8      -0.506100
      8 C5           0.6170     1.1390   -10.2440 ca         1 MQ8      -0.133600
      9 C6          -0.5020     1.6180   -10.9150 ca         1 MQ8      -0.084000
     10 C7          -0.4830     2.8860   -11.4760 ca         1 MQ8      -0.116000
     11 C8           0.6530     3.6790   -11.3680 ca         1 MQ8      -0.117000
     12 C9           1.7700     3.2070   -10.6970 ca         1 MQ8      -0.083000
     13 C10          1.7550     1.9360   -10.1330 ca         1 MQ8      -0.134600
     14 C11          1.6960    -2.0880    -8.3470 c3         1 MQ8       0.002000
     15 C12          1.1550    -1.9730    -6.9500 c2         1 MQ8      -0.183200
     16 C13         -0.0040    -2.4360    -6.4750 c2         1 MQ8      -0.091400
     17 C14         -1.0070    -3.2180    -7.2690 c3         1 MQ8      -0.055900
     18 C15         -0.3870    -2.1640    -5.0440 c3         1 MQ8      -0.041200
     19 C16         -1.5320    -1.1470    -4.9180 c3         1 MQ8      -0.036200
     20 C17         -1.9640    -0.9790    -3.4960 c2         1 MQ8      -0.172200
     21 C18         -1.8410     0.0960    -2.7130 c2         1 MQ8      -0.111400
     22 C19         -1.2410     1.4010    -3.1470 c3         1 MQ8      -0.054900
     23 C20         -2.3230     0.0490    -1.2860 c3         1 MQ8      -0.038200
     24 C21         -1.1840     0.0720    -0.2550 c3         1 MQ8      -0.036200
     25 C22         -1.7070     0.0240     1.1480 c2         1 MQ8      -0.172200
     26 C23         -1.7960    -1.0420     1.9480 c2         1 MQ8      -0.110400
     27 C24         -1.3430    -2.4220     1.5690 c3         1 MQ8      -0.055900
     28 C25         -2.3870    -0.9110     3.3250 c3         1 MQ8      -0.040200
     29 C26         -3.6990    -1.6880     3.5140 c3         1 MQ8      -0.035200
     30 C27         -4.2050    -1.5510     4.9160 c2         1 MQ8      -0.174200
     31 C28         -5.2480    -0.8370     5.3510 c2         1 MQ8      -0.111400
     32 C29         -6.1590    -0.0410     4.4630 c3         1 MQ8      -0.054900
     33 C30         -5.5470    -0.7570     6.8240 c3         1 MQ8      -0.037200
     34 C31         -5.3350     0.6580     7.3880 c3         1 MQ8      -0.041200
     35 C32         -5.4450     0.7180     8.8830 c2         1 MQ8      -0.171200
     36 C33         -4.4200     0.6320     9.7340 c2         1 MQ8      -0.112400
     37 C34         -4.6100     0.7370    11.2180 c3         1 MQ8      -0.053900
     38 C35         -2.9970     0.4680     9.2650 c3         1 MQ8      -0.041200
     39 C36         -2.2930     1.8160     9.0190 c3         1 MQ8      -0.036200
     40 C37         -0.9020     1.6190     8.4980 c2         1 MQ8      -0.174200
     41 C38         -0.5780     1.4810     7.2090 c2         1 MQ8      -0.112400
     42 C39         -1.5990     1.5610     6.1060 c3         1 MQ8      -0.059900
     43 C40          0.8270     1.1690     6.7840 c3         1 MQ8      -0.035200
     44 C41          0.9560    -0.2440     6.1890 c3         1 MQ8      -0.038200
     45 C42          2.3420    -0.5090     5.6920 c2         1 MQ8      -0.170200
     46 C43          3.3070    -1.2070     6.2970 c2         1 MQ8      -0.113400
     47 C44          4.6750    -1.3060     5.6750 c3         1 MQ8      -0.038200
     48 C45          3.1430    -1.9140     7.6110 c3         1 MQ8      -0.054900
     49 C46          5.7380    -0.4900     6.4290 c3         1 MQ8      -0.035200
     50 C47          7.0980    -0.6690     5.8300 c2         1 MQ8      -0.174200
     51 C48          7.8620     0.2430     5.2230 c2         1 MQ8      -0.112400
     52 C49          9.2040    -0.1280     4.6620 c3         1 MQ8      -0.055900
     53 C50          7.4900     1.6850     5.0350 c3         1 MQ8      -0.055900
     54 H2M1         4.3380     0.3770    -7.2640 hc         1 MQ8       0.055367
     55 H2M2         4.0710    -1.3170    -7.6400 hc         1 MQ8       0.055367
     56 H2M3         5.0110    -0.3040    -8.7310 hc         1 MQ8       0.055367
     57 H61         -1.3860     1.0010   -11.0010 ha         1 MQ8       0.156000
     58 H71         -1.3540     3.2560   -11.9990 ha         1 MQ8       0.139000
     59 H81          0.6680     4.6670   -11.8080 ha         1 MQ8       0.139000
     60 H91          2.6530     3.8270   -10.6140 ha         1 MQ8       0.156000
     61 H111         2.6750    -2.5690    -8.3240 hc         1 MQ8       0.064200
     62 H112         1.0620    -2.7120    -8.9730 hc         1 MQ8       0.064200
     63 H121         1.7940    -1.4170    -6.2670 ha         1 MQ8       0.116000
     64 H141        -1.9290    -2.6490    -7.4060 hc         1 MQ8       0.043367
     65 H142        -0.6530    -3.5040    -8.2560 hc         1 MQ8       0.043367
     66 H143        -1.2820    -4.1290    -6.7330 hc         1 MQ8       0.043367
     67 H151         0.4770    -1.7910    -4.4880 hc         1 MQ8       0.045200
     68 H152        -0.6910    -3.1000    -4.5630 hc         1 MQ8       0.045200
     69 H161        -2.3890    -1.4910    -5.5070 hc         1 MQ8       0.047700
     70 H162        -1.2140    -0.2020    -5.3620 hc         1 MQ8       0.047700
     71 H171        -2.4190    -1.8660    -3.0580 ha         1 MQ8       0.114000
     72 H191        -1.9640     2.2120    -3.0260 hc         1 MQ8       0.039367
     73 H192        -0.3770     1.6660    -2.5330 hc         1 MQ8       0.039367
     74 H193        -0.9130     1.4020    -4.1850 hc         1 MQ8       0.039367
     75 H201        -2.9170    -0.8540    -1.1250 hc         1 MQ8       0.045200
     76 H202        -2.9900     0.8980    -1.0960 hc         1 MQ8       0.045200
     77 H211        -0.5950     0.9850    -0.3790 hc         1 MQ8       0.045200
     78 H212        -0.5060    -0.7600    -0.4590 hc         1 MQ8       0.045200
     79 H221        -2.0840     0.9700     1.5300 ha         1 MQ8       0.115000
     80 H241        -0.7330    -2.4400     0.6670 hc         1 MQ8       0.039367
     81 H242        -0.7590    -2.8710     2.3760 hc         1 MQ8       0.039367
     82 H243        -2.1920    -3.0870     1.3950 hc         1 MQ8       0.039367
     83 H251        -2.5680     0.1410     3.5550 hc         1 MQ8       0.044700
     84 H252        -1.6620    -1.2710     4.0660 hc         1 MQ8       0.044700
     85 H261        -3.5270    -2.7470     3.2980 hc         1 MQ8       0.046200
     86 H262        -4.4280    -1.3380     2.7810 hc         1 MQ8       0.046200
     87 H271        -3.6100    -2.0710     5.6640 ha         1 MQ8       0.115000
     88 H291        -7.2060    -0.2520     4.6940 hc         1 MQ8       0.039367
     89 H292        -6.0190     1.0320     4.6170 hc         1 MQ8       0.039367
     90 H293        -6.0070    -0.2360     3.4040 hc         1 MQ8       0.039367
     91 H301        -4.9050    -1.4540     7.3680 hc         1 MQ8       0.046200
     92 H302        -6.5800    -1.0670     7.0180 hc         1 MQ8       0.046200
     93 H311        -6.0680     1.3390     6.9500 hc         1 MQ8       0.045200
     94 H312        -4.3560     1.0170     7.0610 hc         1 MQ8       0.045200
     95 H321        -6.4470     0.8370     9.2880 ha         1 MQ8       0.118000
     96 H341        -5.6460     0.9390    11.4870 hc         1 MQ8       0.038700
     97 H342        -4.3010    -0.1840    11.7200 hc         1 MQ8       0.038700
     98 H343        -3.9930     1.5370    11.6370 hc         1 MQ8       0.038700
     99 H351        -2.9560    -0.1180     8.3440 hc         1 MQ8       0.045700
    100 H352        -2.4280    -0.1000    10.0080 hc         1 MQ8       0.045700
    101 H361        -2.2690     2.3860     9.9520 hc         1 MQ8       0.045200
    102 H362        -2.8960     2.4000     8.3180 hc         1 MQ8       0.045200
    103 H371        -0.1150     1.5220     9.2410 ha         1 MQ8       0.118000
    104 H391        -1.1270     1.6930     5.1320 hc         1 MQ8       0.040367
    105 H392        -2.2020     0.6490     6.0460 hc         1 MQ8       0.040367
    106 H393        -2.2960     2.3880     6.2480 hc         1 MQ8       0.040367
    107 H401         1.5120     1.2560     7.6310 hc         1 MQ8       0.045700
    108 H402         1.1570     1.8960     6.0330 hc         1 MQ8       0.045700
    109 H411         0.2490    -0.3500     5.3590 hc         1 MQ8       0.045200
    110 H412         0.6500    -0.9710     6.9440 hc         1 MQ8       0.045200
    111 H421         2.5910    -0.0310     4.7470 ha         1 MQ8       0.116000
    112 H441         4.6390    -0.9600     4.6390 hc         1 MQ8       0.045200
    113 H442         4.9910    -2.3550     5.6450 hc         1 MQ8       0.045200
    114 H451         2.1180    -1.9120     7.9750 hc         1 MQ8       0.039033
    115 H452         3.4680    -2.9540     7.5290 hc         1 MQ8       0.039033
    116 H453         3.7620    -1.4570     8.3860 hc         1 MQ8       0.039033
    117 H461         5.7700    -0.8150     7.4740 hc         1 MQ8       0.045700
    118 H462         5.4340     0.5570     6.4420 hc         1 MQ8       0.045700
    119 H471         7.4870    -1.6830     5.8920 ha         1 MQ8       0.113000
    120 H491         9.2550     0.0890     3.5910 hc         1 MQ8       0.038367
    121 H492        10.0020     0.4540     5.1310 hc         1 MQ8       0.038367
    122 H493         9.4300    -1.1850     4.8010 hc         1 MQ8       0.038367
    123 H501         6.5160     1.9400     5.4470 hc         1 MQ8       0.038367
    124 H502         8.2320     2.3370     5.5020 hc         1 MQ8       0.038367
    125 H503         7.4810     1.9410     3.9720 hc         1 MQ8       0.038367
@<TRIPOS>BOND
     1     1     2 2   
     2     1     3 1   
     3     1    13 1   
     4     3     4 1   
     5     3     5 2   
     6     4    54 1   
     7     4    55 1   
     8     4    56 1   
     9     5     6 1   
    10     5    14 1   
    11     6     7 2   
    12     6     8 1   
    13     8     9 ar  
    14     8    13 ar  
    15     9    10 ar  
    16     9    57 1   
    17    10    11 ar  
    18    10    58 1   
    19    11    12 ar  
    20    11    59 1   
    21    12    13 ar  
    22    12    60 1   
    23    14    15 1   
    24    14    61 1   
    25    14    62 1   
    26    15    16 2   
    27    15    63 1   
    28    16    17 1   
    29    16    18 1   
    30    17    64 1   
    31    17    65 1   
    32    17    66 1   
    33    18    19 1   
    34    18    67 1   
    35    18    68 1   
    36    19    20 1   
    37    19    69 1   
    38    19    70 1   
    39    20    21 2   
    40    20    71 1   
    41    21    22 1   
    42    21    23 1   
    43    22    72 1   
    44    22    73 1   
    45    22    74 1   
    46    23    24 1   
    47    23    75 1   
    48    23    76 1   
    49    24    25 1   
    50    24    77 1   
    51    24    78 1   
    52    25    26 2   
    53    25    79 1   
    54    26    27 1   
    55    26    28 1   
    56    27    80 1   
    57    27    81 1   
    58    27    82 1   
    59    28    29 1   
    60    28    83 1   
    61    28    84 1   
    62    29    30 1   
    63    29    85 1   
    64    29    86 1   
    65    30    31 2   
    66    30    87 1   
    67    31    32 1   
    68    31    33 1   
    69    32    88 1   
    70    32    89 1   
    71    32    90 1   
    72    33    34 1   
    73    33    91 1   
    74    33    92 1   
    75    34    35 1   
    76    34    93 1   
    77    34    94 1   
    78    35    36 2   
    79    35    95 1   
    80    36    37 1   
    81    36    38 1   
    82    37    96 1   
    83    37    97 1   
    84    37    98 1   
    85    38    39 1   
    86    38    99 1   
    87    38   100 1   
    88    39    40 1   
    89    39   101 1   
    90    39   102 1   
    91    40    41 2   
    92    40   103 1   
    93    41    42 1   
    94    41    43 1   
    95    42   104 1   
    96    42   105 1   
    97    42   106 1   
    98    43    44 1   
    99    43   107 1   
   100    43   108 1   
   101    44    45 1   
   102    44   109 1   
   103    44   110 1   
   104    45    46 2   
   105    45   111 1   
   106    46    47 1   
   107    46    48 1   
   108    47    49 1   
   109    47   112 1   
   110    47   113 1   
   111    48   114 1   
   112    48   115 1   
   113    48   116 1   
   114    49    50 1   
   115    49   117 1   
   116    49   118 1   
   117    50    51 2   
   118    50   119 1   
   119    51    52 1   
   120    51    53 1   
   121    52   120 1   
   122    52   121 1   
   123    52   122 1   
   124    53   123 1   
   125    53   124 1   
   126    53   125 1   
@<TRIPOS>SUBSTRUCTURE
     1 MQ8         1 TEMP              0 ****  ****    0 ROOT
