@<TRIPOS>MOLECULE
MQ8
  125   126     1     0     0
SMALL
No Charge or Current Charge


@<TRIPOS>ATOM
      1 C1           2.4130     2.3690    -8.8900 c          1 MQ8       0.571900
      2 O1           2.5880     3.5730    -9.0510 o          1 MQ8      -0.509100
      3 C2           3.1070     1.5890    -7.8170 cc         1 MQ8      -0.132400
      4 C2M          4.0190     2.4210    -6.9250 c3         1 MQ8      -0.055900
      5 C3           2.9380     0.2100    -7.6850 cd         1 MQ8      -0.131400
      6 C4           2.0150    -0.5560    -8.5820 c          1 MQ8       0.575900
      7 O4           1.8530    -1.7680    -8.4800 o          1 MQ8      -0.506100
      8 C5           1.2710     0.2170    -9.6400 ca         1 MQ8      -0.133600
      9 C6           0.3700    -0.4540   -10.5000 ca         1 MQ8      -0.066000
     10 C7          -0.3290     0.2460   -11.4950 ca         1 MQ8      -0.098000
     11 C8          -0.1350     1.6260   -11.6450 ca         1 MQ8      -0.099000
     12 C9           0.7550     2.3040   -10.7990 ca         1 MQ8      -0.065000
     13 C10          1.4640     1.6110    -9.7890 ca         1 MQ8      -0.134600
     14 C11          3.6530    -0.6250    -6.6310 c3         1 MQ8       0.002000
     15 C12          2.8290    -0.7050    -5.3550 c2         1 MQ8      -0.233200
     16 C13          2.2510    -1.7820    -4.7840 c2         1 MQ8      -0.091400
     17 C14          2.3080    -3.2150    -5.3050 c3         1 MQ8      -0.055900
     18 C15          1.4530    -1.6610    -3.4920 c3         1 MQ8      -0.041200
     19 C16         -0.0740    -1.6910    -3.7200 c3         1 MQ8      -0.036200
     20 C17         -0.8510    -1.4540    -2.4370 c2         1 MQ8      -0.222200
     21 C18         -1.2290    -0.2730    -1.9110 c2         1 MQ8      -0.111400
     22 C19         -0.9180     1.0940    -2.5110 c3         1 MQ8      -0.054900
     23 C20         -2.0450    -0.1890    -0.6280 c3         1 MQ8      -0.038200
     24 C21         -1.1940     0.1760     0.6070 c3         1 MQ8      -0.036200
     25 C22         -2.0090     0.1930     1.8870 c2         1 MQ8      -0.222200
     26 C23         -2.2540    -0.8380     2.7180 c2         1 MQ8      -0.110400
     27 C24         -1.7770    -2.2690     2.5040 c3         1 MQ8      -0.055900
     28 C25         -2.9960    -0.6490     4.0330 c3         1 MQ8      -0.040200
     29 C26         -4.4710    -1.0910     4.0030 c3         1 MQ8      -0.035200
     30 C27         -5.1040    -0.8910     5.3680 c2         1 MQ8      -0.224200
     31 C28         -5.8090     0.1660     5.8170 c2         1 MQ8      -0.111400
     32 C29         -6.1630     1.4060     5.0040 c3         1 MQ8      -0.054900
     33 C30         -6.2830     0.2410     7.2630 c3         1 MQ8      -0.037200
     34 C31         -5.5370     1.3180     8.0870 c3         1 MQ8      -0.041200
     35 C32         -5.3200     0.9020     9.5320 c2         1 MQ8      -0.221200
     36 C33         -4.2130     0.3330    10.0480 c2         1 MQ8      -0.112400
     37 C34         -4.0870    -0.0100    11.5220 c3         1 MQ8      -0.053900
     38 C35         -2.9710    -0.0340     9.2380 c3         1 MQ8      -0.041200
     39 C36         -1.8640     1.0390     9.3270 c3         1 MQ8      -0.036200
     40 C37         -0.7490     0.8070     8.3190 c2         1 MQ8      -0.224200
     41 C38         -0.5470     1.4330     7.1410 c2         1 MQ8      -0.112400
     42 C39         -1.4400     2.5220     6.5520 c3         1 MQ8      -0.059900
     43 C40          0.6590     1.1180     6.2610 c3         1 MQ8      -0.035200
     44 C41          0.2940     0.3170     4.9930 c3         1 MQ8      -0.038200
     45 C42          1.5100    -0.1070     4.1910 c2         1 MQ8      -0.220200
     46 C43          2.1730    -1.2780     4.2570 c2         1 MQ8      -0.113400
     47 C44          3.3410    -1.5910     3.3350 c3         1 MQ8      -0.038200
     48 C45          1.8450    -2.4230     5.2090 c3         1 MQ8      -0.054900
     49 C46          4.7120    -1.3570     4.0040 c3         1 MQ8      -0.035200
     50 C47          5.8680    -1.6490     3.0640 c2         1 MQ8      -0.224200
     51 C48          6.4340    -0.8110     2.1750 c2         1 MQ8      -0.112400
     52 C49          7.6100    -1.2200     1.3080 c3         1 MQ8      -0.055900
     53 C50          5.9920     0.6220     1.9110 c3         1 MQ8      -0.055900
     54 H2M1         3.6400     3.4400    -6.7750 hc         1 MQ8       0.055367
     55 H2M2         4.1210     1.9910    -5.9230 hc         1 MQ8       0.055367
     56 H2M3         5.0220     2.4960    -7.3610 hc         1 MQ8       0.055367
     57 H61          0.2060    -1.5260   -10.4000 ha         1 MQ8       0.138000
     58 H71         -1.0200    -0.2820   -12.1490 ha         1 MQ8       0.121000
     59 H81         -0.6750     2.1710   -12.4170 ha         1 MQ8       0.121000
     60 H91          0.8900     3.3770   -10.9320 ha         1 MQ8       0.138000
     61 H111         4.6340    -0.1930    -6.4010 hc         1 MQ8       0.064200
     62 H112         3.9050    -1.6130    -7.0270 hc         1 MQ8       0.064200
     63 H121         2.7110     0.2680    -4.8760 ha         1 MQ8       0.166000
     64 H141         1.3070    -3.5870    -5.5520 hc         1 MQ8       0.043367
     65 H142         2.9150    -3.3260    -6.2080 hc         1 MQ8       0.043367
     66 H143         2.7340    -3.8880    -4.5520 hc         1 MQ8       0.043367
     67 H151         1.7010    -0.7180    -2.9880 hc         1 MQ8       0.045200
     68 H152         1.7340    -2.4560    -2.7890 hc         1 MQ8       0.045200
     69 H161        -0.3640    -2.6590    -4.1460 hc         1 MQ8       0.047700
     70 H162        -0.3370    -0.9440    -4.4780 hc         1 MQ8       0.047700
     71 H171        -1.1250    -2.3800    -1.9270 ha         1 MQ8       0.164000
     72 H191        -1.8410     1.6250    -2.7740 hc         1 MQ8       0.039367
     73 H192        -0.3630     1.7230    -1.8050 hc         1 MQ8       0.039367
     74 H193        -0.3100     1.0320    -3.4190 hc         1 MQ8       0.039367
     75 H201        -2.5280    -1.1540    -0.4330 hc         1 MQ8       0.045200
     76 H202        -2.8610     0.5360    -0.7390 hc         1 MQ8       0.045200
     77 H211        -0.7340     1.1600     0.4590 hc         1 MQ8       0.045200
     78 H212        -0.3590    -0.5310     0.6870 hc         1 MQ8       0.045200
     79 H221        -2.3830     1.1860     2.1410 ha         1 MQ8       0.165000
     80 H241        -1.2720    -2.4090     1.5430 hc         1 MQ8       0.039367
     81 H242        -1.0710    -2.5670     3.2890 hc         1 MQ8       0.039367
     82 H243        -2.6150    -2.9740     2.5250 hc         1 MQ8       0.039367
     83 H251        -2.9720     0.4080     4.3220 hc         1 MQ8       0.044700
     84 H252        -2.4820    -1.1890     4.8380 hc         1 MQ8       0.044700
     85 H261        -4.5350    -2.1490     3.7200 hc         1 MQ8       0.046200
     86 H262        -5.0000    -0.5380     3.2190 hc         1 MQ8       0.046200
     87 H271        -4.8940    -1.7190     6.0490 ha         1 MQ8       0.165000
     88 H291        -7.2510     1.5390     4.9510 hc         1 MQ8       0.039367
     89 H292        -5.7400     2.3130     5.4530 hc         1 MQ8       0.039367
     90 H293        -5.7930     1.3650     3.9750 hc         1 MQ8       0.039367
     91 H301        -6.1290    -0.7310     7.7470 hc         1 MQ8       0.046200
     92 H302        -7.3640     0.4270     7.3100 hc         1 MQ8       0.046200
     93 H311        -6.0960     2.2600     8.0440 hc         1 MQ8       0.045200
     94 H312        -4.5740     1.5320     7.6090 hc         1 MQ8       0.045200
     95 H321        -6.1680     1.1280    10.1810 ha         1 MQ8       0.168000
     96 H341        -4.9930     0.2570    12.0790 hc         1 MQ8       0.038700
     97 H342        -3.9200    -1.0850    11.6660 hc         1 MQ8       0.038700
     98 H343        -3.2500     0.5250    11.9860 hc         1 MQ8       0.038700
     99 H351        -3.2300    -0.1750     8.1820 hc         1 MQ8       0.045700
    100 H352        -2.5680    -1.0010     9.5640 hc         1 MQ8       0.045700
    101 H361        -1.4460     1.0380    10.3410 hc         1 MQ8       0.045200
    102 H362        -2.3180     2.0270     9.2030 hc         1 MQ8       0.045200
    103 H371        -0.0410     0.0430     8.6440 ha         1 MQ8       0.168000
    104 H391        -0.8830     3.4580     6.4250 hc         1 MQ8       0.040367
    105 H392        -1.8280     2.2330     5.5690 hc         1 MQ8       0.040367
    106 H393        -2.3130     2.7480     7.1710 hc         1 MQ8       0.040367
    107 H401         1.3930     0.5330     6.8300 hc         1 MQ8       0.045700
    108 H402         1.1730     2.0430     5.9710 hc         1 MQ8       0.045700
    109 H411        -0.3610     0.9200     4.3550 hc         1 MQ8       0.045200
    110 H412        -0.2970    -0.5550     5.2900 hc         1 MQ8       0.045200
    111 H421         1.8250     0.6460     3.4670 ha         1 MQ8       0.166000
    112 H441         3.2870    -0.9580     2.4400 hc         1 MQ8       0.045200
    113 H442         3.2800    -2.6250     2.9720 hc         1 MQ8       0.045200
    114 H451         1.0560    -2.1720     5.9260 hc         1 MQ8       0.039033
    115 H452         1.5140    -3.3100     4.6550 hc         1 MQ8       0.039033
    116 H453         2.7220    -2.7110     5.8010 hc         1 MQ8       0.039033
    117 H461         4.7990    -1.9900     4.8950 hc         1 MQ8       0.045700
    118 H462         4.7600    -0.3230     4.3680 hc         1 MQ8       0.045700
    119 H471         6.2610    -2.6620     3.1720 ha         1 MQ8       0.163000
    120 H491         7.3580    -1.1530     0.2430 hc         1 MQ8       0.038367
    121 H492         8.4780    -0.5740     1.4890 hc         1 MQ8       0.038367
    122 H493         7.9230    -2.2520     1.5070 hc         1 MQ8       0.038367
    123 H501         5.1140     0.9120     2.4970 hc         1 MQ8       0.038367
    124 H502         6.7940     1.3300     2.1520 hc         1 MQ8       0.038367
    125 H503         5.7320     0.7620     0.8550 hc         1 MQ8       0.038367
@<TRIPOS>BOND
     1     1     2 2   
     2     1     3 1   
     3     1    13 1   
     4     3     4 1   
     5     3     5 2   
     6     4    54 1   
     7     4    55 1   
     8     4    56 1   
     9     5     6 1   
    10     5    14 1   
    11     6     7 2   
    12     6     8 1   
    13     8     9 ar  
    14     8    13 ar  
    15     9    10 ar  
    16     9    57 1   
    17    10    11 ar  
    18    10    58 1   
    19    11    12 ar  
    20    11    59 1   
    21    12    13 ar  
    22    12    60 1   
    23    14    15 1   
    24    14    61 1   
    25    14    62 1   
    26    15    16 2   
    27    15    63 1   
    28    16    17 1   
    29    16    18 1   
    30    17    64 1   
    31    17    65 1   
    32    17    66 1   
    33    18    19 1   
    34    18    67 1   
    35    18    68 1   
    36    19    20 1   
    37    19    69 1   
    38    19    70 1   
    39    20    21 2   
    40    20    71 1   
    41    21    22 1   
    42    21    23 1   
    43    22    72 1   
    44    22    73 1   
    45    22    74 1   
    46    23    24 1   
    47    23    75 1   
    48    23    76 1   
    49    24    25 1   
    50    24    77 1   
    51    24    78 1   
    52    25    26 2   
    53    25    79 1   
    54    26    27 1   
    55    26    28 1   
    56    27    80 1   
    57    27    81 1   
    58    27    82 1   
    59    28    29 1   
    60    28    83 1   
    61    28    84 1   
    62    29    30 1   
    63    29    85 1   
    64    29    86 1   
    65    30    31 2   
    66    30    87 1   
    67    31    32 1   
    68    31    33 1   
    69    32    88 1   
    70    32    89 1   
    71    32    90 1   
    72    33    34 1   
    73    33    91 1   
    74    33    92 1   
    75    34    35 1   
    76    34    93 1   
    77    34    94 1   
    78    35    36 2   
    79    35    95 1   
    80    36    37 1   
    81    36    38 1   
    82    37    96 1   
    83    37    97 1   
    84    37    98 1   
    85    38    39 1   
    86    38    99 1   
    87    38   100 1   
    88    39    40 1   
    89    39   101 1   
    90    39   102 1   
    91    40    41 2   
    92    40   103 1   
    93    41    42 1   
    94    41    43 1   
    95    42   104 1   
    96    42   105 1   
    97    42   106 1   
    98    43    44 1   
    99    43   107 1   
   100    43   108 1   
   101    44    45 1   
   102    44   109 1   
   103    44   110 1   
   104    45    46 2   
   105    45   111 1   
   106    46    47 1   
   107    46    48 1   
   108    47    49 1   
   109    47   112 1   
   110    47   113 1   
   111    48   114 1   
   112    48   115 1   
   113    48   116 1   
   114    49    50 1   
   115    49   117 1   
   116    49   118 1   
   117    50    51 2   
   118    50   119 1   
   119    51    52 1   
   120    51    53 1   
   121    52   120 1   
   122    52   121 1   
   123    52   122 1   
   124    53   123 1   
   125    53   124 1   
   126    53   125 1   
@<TRIPOS>SUBSTRUCTURE
     1 MQ8         1 TEMP              0 ****  ****    0 ROOT
