@<TRIPOS>MOLECULE
MQ9
  138   139     1     0     0
SMALL
No Charge or Current Charge


@<TRIPOS>ATOM
      1 C5          -1.4080     1.2330   -13.2020 cc         1 MQ9      -0.132400
      2 C5M         -1.7370     2.6450   -12.7340 c3         1 MQ9      -0.059900
      3 C4          -2.5860     0.4690   -13.7220 c          1 MQ9       0.574900
      4 O4          -3.7110     0.9530   -13.7880 o          1 MQ9      -0.508100
      5 C3          -2.3420    -0.9530   -14.1710 ca         1 MQ9      -0.134600
      6 C2          -1.0480    -1.5220   -14.1290 ca         1 MQ9      -0.133600
      7 C1           0.1310    -0.7210   -13.6410 c          1 MQ9       0.576900
      8 O1           1.2500    -1.2230   -13.6280 o          1 MQ9      -0.506100
      9 C6          -0.1250     0.6840   -13.1850 cd         1 MQ9      -0.133400
     10 C3A         -3.4250    -1.7320   -14.6420 ca         1 MQ9      -0.066000
     11 C3B         -3.2280    -3.0560   -15.0630 ca         1 MQ9      -0.099000
     12 C3C         -1.9460    -3.6200   -15.0190 ca         1 MQ9      -0.098000
     13 C3D         -0.8630    -2.8590   -14.5550 ca         1 MQ9      -0.066000
     14 C7           1.1040     1.4370   -12.6960 c3         1 MQ9       0.002000
     15 C8           1.2940     1.2420   -11.1990 c2         1 MQ9      -0.233200
     16 C9           2.2810     0.5950   -10.5460 c2         1 MQ9      -0.089400
     17 C10          3.4770    -0.0990   -11.1870 c3         1 MQ9      -0.056900
     18 C11          2.2940     0.5020    -9.0260 c3         1 MQ9      -0.042200
     19 C12          1.8420    -0.8780    -8.5000 c3         1 MQ9      -0.035200
     20 C13          1.7160    -0.9010    -6.9870 c2         1 MQ9      -0.222200
     21 C14          0.6440    -0.5570    -6.2480 c2         1 MQ9      -0.111400
     22 C15         -0.6790    -0.0480    -6.8090 c3         1 MQ9      -0.054900
     23 C16          0.6450    -0.6690    -4.7290 c3         1 MQ9      -0.038200
     24 C17          0.8220     0.6920    -4.0180 c3         1 MQ9      -0.036200
     25 C18          0.9000     0.5700    -2.5050 c2         1 MQ9      -0.222200
     26 C19          1.1480     1.5640    -1.6320 c2         1 MQ9      -0.111400
     27 C20          1.3800     3.0180    -2.0210 c3         1 MQ9      -0.054900
     28 C21          1.1930     1.3270    -0.1280 c3         1 MQ9      -0.038200
     29 C22          2.6230     1.3510     0.4520 c3         1 MQ9      -0.036200
     30 C23          2.6450     1.0030     1.9300 c2         1 MQ9      -0.222200
     31 C24          2.7350    -0.2200     2.4860 c2         1 MQ9      -0.111400
     32 C25          2.8190    -1.5310     1.7120 c3         1 MQ9      -0.054900
     33 C26          2.7770    -0.4140     3.9960 c3         1 MQ9      -0.038200
     34 C27          1.4370    -0.9070     4.5830 c3         1 MQ9      -0.036200
     35 C28          1.4660    -0.9730     6.1000 c2         1 MQ9      -0.222200
     36 C29          1.1630     0.0090     6.9700 c2         1 MQ9      -0.111400
     37 C30          0.7420     1.4230     6.5860 c3         1 MQ9      -0.055900
     38 C31          1.1840    -0.2160     8.4740 c3         1 MQ9      -0.040200
     39 C32          2.4560     0.3170     9.1630 c3         1 MQ9      -0.036200
     40 C33          2.3800     0.1380    10.6680 c2         1 MQ9      -0.224200
     41 C34          2.8120    -0.9040    11.4050 c2         1 MQ9      -0.111400
     42 C35          3.4950    -2.1510    10.8580 c3         1 MQ9      -0.054900
     43 C36          2.6170    -0.9390    12.9140 c3         1 MQ9      -0.038200
     44 C37          1.5280    -1.9420    13.3550 c3         1 MQ9      -0.040200
     45 C38          0.9250    -1.5840    14.7030 c2         1 MQ9      -0.221200
     46 C39         -0.1610    -0.8170    14.9160 c2         1 MQ9      -0.112400
     47 C40         -0.7040    -0.5440    16.3090 c3         1 MQ9      -0.053900
     48 C41         -0.9630    -0.1310    13.8130 c3         1 MQ9      -0.041200
     49 C42         -2.2290    -0.9190    13.4170 c3         1 MQ9      -0.035200
     50 C43         -2.8800    -0.3630    12.1600 c2         1 MQ9      -0.224200
     51 C44         -2.7830    -0.8240    10.8960 c2         1 MQ9      -0.113400
     52 C45         -1.9540    -2.0270    10.4560 c3         1 MQ9      -0.058900
     53 C46         -3.5490    -0.1780     9.7480 c3         1 MQ9      -0.036200
     54 C47         -2.6480     0.5850     8.7510 c3         1 MQ9      -0.037200
     55 C48         -3.4500     1.3640     7.7240 c2         1 MQ9      -0.223200
     56 C49         -3.8890     2.6330     7.8190 c2         1 MQ9      -0.112400
     57 C50         -4.6550     3.3140     6.6990 c3         1 MQ9      -0.055900
     58 C51         -3.6940     3.5460     9.0210 c3         1 MQ9      -0.055900
     59 H5M3        -2.7190     2.7000   -12.2490 hc         1 MQ9       0.056033
     60 H5M2        -1.0190     3.0190   -11.9970 hc         1 MQ9       0.056033
     61 H5M1        -1.7420     3.3420   -13.5810 hc         1 MQ9       0.056033
     62 H3A         -4.4300    -1.3140   -14.6840 ha         1 MQ9       0.138000
     63 H3B         -4.0700    -3.6450   -15.4220 ha         1 MQ9       0.121000
     64 H3C         -1.7910    -4.6470   -15.3430 ha         1 MQ9       0.121000
     65 H3D          0.1250    -3.3150   -14.5300 ha         1 MQ9       0.138000
     66 H72          1.0070     2.5070   -12.9120 hc         1 MQ9       0.063200
     67 H71          1.9910     1.1480   -13.2670 hc         1 MQ9       0.063200
     68 H8           0.4920     1.6980   -10.6170 ha         1 MQ9       0.166000
     69 H103         3.4740    -1.1740   -10.9700 hc         1 MQ9       0.044033
     70 H102         3.5080     0.0010   -12.2760 hc         1 MQ9       0.044033
     71 H101         4.4190     0.3120   -10.8050 hc         1 MQ9       0.044033
     72 H112         1.6230     1.2600    -8.6030 hc         1 MQ9       0.045200
     73 H111         3.2910     0.7360    -8.6330 hc         1 MQ9       0.045200
     74 H121         2.5590    -1.6440    -8.8180 hc         1 MQ9       0.047700
     75 H122         0.8910    -1.1480    -8.9740 hc         1 MQ9       0.047700
     76 H13          2.6190    -1.2580    -6.4890 ha         1 MQ9       0.164000
     77 H153        -0.6750     0.0390    -7.9000 hc         1 MQ9       0.039033
     78 H152        -1.5040    -0.7200    -6.5420 hc         1 MQ9       0.039033
     79 H151        -0.9220     0.9460    -6.4170 hc         1 MQ9       0.039033
     80 H162         1.4620    -1.3270    -4.4070 hc         1 MQ9       0.044700
     81 H161        -0.2800    -1.1470    -4.3810 hc         1 MQ9       0.044700
     82 H172        -0.0130     1.3500    -4.2850 hc         1 MQ9       0.045200
     83 H171         1.7330     1.1690    -4.4000 hc         1 MQ9       0.045200
     84 H18          0.7360    -0.4430    -2.1310 ha         1 MQ9       0.165000
     85 H203         1.2700     3.1890    -3.0970 hc         1 MQ9       0.038700
     86 H202         0.6640     3.6790    -1.5170 hc         1 MQ9       0.038700
     87 H201         2.3880     3.3490    -1.7460 hc         1 MQ9       0.038700
     88 H212         0.7490     0.3520     0.1070 hc         1 MQ9       0.045200
     89 H211         0.5750     2.0680     0.3940 hc         1 MQ9       0.045200
     90 H222         3.0620     2.3450     0.3070 hc         1 MQ9       0.045700
     91 H221         3.2540     0.6610    -0.1210 hc         1 MQ9       0.045700
     92 H23          2.5890     1.8820     2.5750 ha         1 MQ9       0.165000
     93 H253         2.7740    -1.3900     0.6280 hc         1 MQ9       0.039033
     94 H252         3.7550    -2.0570     1.9330 hc         1 MQ9       0.039033
     95 H251         1.9930    -2.2020     1.9740 hc         1 MQ9       0.039033
     96 H262         3.0300     0.5350     4.4840 hc         1 MQ9       0.045200
     97 H261         3.5770    -1.1130     4.2710 hc         1 MQ9       0.045200
     98 H272         1.2030    -1.9000     4.1810 hc         1 MQ9       0.045700
     99 H271         0.6310    -0.2500     4.2370 hc         1 MQ9       0.045700
    100 H28          1.7520    -1.9550     6.4790 ha         1 MQ9       0.164000
    101 H303        -0.2760     1.6370     6.9310 hc         1 MQ9       0.039367
    102 H302         1.4060     2.1710     7.0340 hc         1 MQ9       0.039367
    103 H301         0.7610     1.5950     5.5050 hc         1 MQ9       0.039367
    104 H312         1.1090    -1.2880     8.6920 hc         1 MQ9       0.044200
    105 H311         0.3050     0.2450     8.9410 hc         1 MQ9       0.044200
    106 H321         2.5820     1.3820     8.9330 hc         1 MQ9       0.046200
    107 H322         3.3340    -0.1840     8.7400 hc         1 MQ9       0.046200
    108 H33          1.8900     0.9760    11.1650 ha         1 MQ9       0.165000
    109 H353         4.4960    -2.2690    11.2890 hc         1 MQ9       0.039367
    110 H352         2.9220    -3.0540    11.0960 hc         1 MQ9       0.039367
    111 H351         3.6110    -2.1310     9.7690 hc         1 MQ9       0.039367
    112 H362         2.3240     0.0580    13.2660 hc         1 MQ9       0.045700
    113 H361         3.5590    -1.1700    13.4260 hc         1 MQ9       0.045700
    114 H372         1.9510    -2.9530    13.3870 hc         1 MQ9       0.045200
    115 H371         0.7440    -1.9750    12.5890 hc         1 MQ9       0.045200
    116 H38          1.4490    -2.0350    15.5480 ha         1 MQ9       0.168000
    117 H403        -0.1040    -1.0380    17.0820 hc         1 MQ9       0.038700
    118 H402        -0.7030     0.5300    16.5300 hc         1 MQ9       0.038700
    119 H401        -1.7330    -0.9060    16.4130 hc         1 MQ9       0.038700
    120 H412        -0.3470    -0.0010    12.9160 hc         1 MQ9       0.045700
    121 H411        -1.2460     0.8850    14.1160 hc         1 MQ9       0.045700
    122 H422        -2.9460    -0.8870    14.2460 hc         1 MQ9       0.045700
    123 H421        -1.9680    -1.9760    13.2990 hc         1 MQ9       0.045700
    124 H43         -3.5100     0.5050    12.3630 ha         1 MQ9       0.167000
    125 H453        -2.5920    -2.8000    10.0120 hc         1 MQ9       0.040033
    126 H452        -1.2080    -1.7450     9.7060 hc         1 MQ9       0.040033
    127 H451        -1.4020    -2.4960    11.2750 hc         1 MQ9       0.040033
    128 H462        -4.2850     0.5310    10.1460 hc         1 MQ9       0.046200
    129 H461        -4.1290    -0.9340     9.2040 hc         1 MQ9       0.046200
    130 H472        -1.9960    -0.1260     8.2300 hc         1 MQ9       0.045200
    131 H471        -1.9800     1.2500     9.3100 hc         1 MQ9       0.045200
    132 H48         -3.6470     0.7940     6.8150 ha         1 MQ9       0.165000
    133 H503        -4.1280     4.2100     6.3490 hc         1 MQ9       0.038367
    134 H502        -4.7870     2.6520     5.8350 hc         1 MQ9       0.038367
    135 H501        -5.6530     3.6210     7.0330 hc         1 MQ9       0.038367
    136 H513        -3.2060     3.0450     9.8640 hc         1 MQ9       0.038367
    137 H512        -3.0810     4.4160     8.7570 hc         1 MQ9       0.038367
    138 H511        -4.6580     3.9180     9.3890 hc         1 MQ9       0.038367
@<TRIPOS>BOND
     1     1     2 1   
     2     1     3 1   
     3     1     9 2   
     4     2    59 1   
     5     2    60 1   
     6     2    61 1   
     7     3     4 2   
     8     3     5 1   
     9     5     6 ar  
    10     5    10 ar  
    11     6     7 1   
    12     6    13 ar  
    13     7     8 2   
    14     7     9 1   
    15     9    14 1   
    16    10    11 ar  
    17    10    62 1   
    18    11    12 ar  
    19    11    63 1   
    20    12    13 ar  
    21    12    64 1   
    22    13    65 1   
    23    14    15 1   
    24    14    66 1   
    25    14    67 1   
    26    15    16 2   
    27    15    68 1   
    28    16    17 1   
    29    16    18 1   
    30    17    69 1   
    31    17    70 1   
    32    17    71 1   
    33    18    19 1   
    34    18    72 1   
    35    18    73 1   
    36    19    20 1   
    37    19    74 1   
    38    19    75 1   
    39    20    21 2   
    40    20    76 1   
    41    21    22 1   
    42    21    23 1   
    43    22    77 1   
    44    22    78 1   
    45    22    79 1   
    46    23    24 1   
    47    23    80 1   
    48    23    81 1   
    49    24    25 1   
    50    24    82 1   
    51    24    83 1   
    52    25    26 2   
    53    25    84 1   
    54    26    27 1   
    55    26    28 1   
    56    27    85 1   
    57    27    86 1   
    58    27    87 1   
    59    28    29 1   
    60    28    88 1   
    61    28    89 1   
    62    29    30 1   
    63    29    90 1   
    64    29    91 1   
    65    30    31 2   
    66    30    92 1   
    67    31    32 1   
    68    31    33 1   
    69    32    93 1   
    70    32    94 1   
    71    32    95 1   
    72    33    34 1   
    73    33    96 1   
    74    33    97 1   
    75    34    35 1   
    76    34    98 1   
    77    34    99 1   
    78    35    36 2   
    79    35   100 1   
    80    36    37 1   
    81    36    38 1   
    82    37   101 1   
    83    37   102 1   
    84    37   103 1   
    85    38    39 1   
    86    38   104 1   
    87    38   105 1   
    88    39    40 1   
    89    39   106 1   
    90    39   107 1   
    91    40    41 2   
    92    40   108 1   
    93    41    42 1   
    94    41    43 1   
    95    42   109 1   
    96    42   110 1   
    97    42   111 1   
    98    43    44 1   
    99    43   112 1   
   100    43   113 1   
   101    44    45 1   
   102    44   114 1   
   103    44   115 1   
   104    45    46 2   
   105    45   116 1   
   106    46    47 1   
   107    46    48 1   
   108    47   117 1   
   109    47   118 1   
   110    47   119 1   
   111    48    49 1   
   112    48   120 1   
   113    48   121 1   
   114    49    50 1   
   115    49   122 1   
   116    49   123 1   
   117    50    51 2   
   118    50   124 1   
   119    51    52 1   
   120    51    53 1   
   121    52   125 1   
   122    52   126 1   
   123    52   127 1   
   124    53    54 1   
   125    53   128 1   
   126    53   129 1   
   127    54    55 1   
   128    54   130 1   
   129    54   131 1   
   130    55    56 2   
   131    55   132 1   
   132    56    57 1   
   133    56    58 1   
   134    57   133 1   
   135    57   134 1   
   136    57   135 1   
   137    58   136 1   
   138    58   137 1   
   139    58   138 1   
@<TRIPOS>SUBSTRUCTURE
     1 MQ9         1 TEMP              0 ****  ****    0 ROOT
