@<TRIPOS>MOLECULE
MQ9
  138   139     1     0     0
SMALL
bcc


@<TRIPOS>ATOM
      1 C5          -0.0030     1.5140   -13.8340 cc         1 MQ9      -0.132400
      2 C5M          0.4000     2.9420   -13.6270 c3         1 MQ9      -0.059900
      3 C4          -1.3650     1.2680   -14.3760 c          1 MQ9       0.574900
      4 O4          -2.0970     2.1950   -14.6580 o          1 MQ9      -0.508100
      5 C3          -1.8170    -0.1310   -14.5650 ca         1 MQ9      -0.134600
      6 C2          -0.9660    -1.1910   -14.2570 ca         1 MQ9      -0.133600
      7 C1           0.3980    -0.9230   -13.7460 c          1 MQ9       0.576900
      8 O1           1.1560    -1.8380   -13.4950 o          1 MQ9      -0.506100
      9 C6           0.8240     0.4860   -13.5530 cd         1 MQ9      -0.133400
     10 C3A         -3.0940    -0.3850   -15.0530 ca         1 MQ9      -0.084000
     11 C3B         -3.5190    -1.6930   -15.2300 ca         1 MQ9      -0.117000
     12 C3C         -2.6710    -2.7500   -14.9210 ca         1 MQ9      -0.116000
     13 C3D         -1.3970    -2.5010   -14.4360 ca         1 MQ9      -0.084000
     14 C7           2.1920     0.6910   -12.9660 c3         1 MQ9       0.002000
     15 C8           2.1070     0.6530   -11.4650 c2         1 MQ9      -0.183200
     16 C9           2.6510    -0.2370   -10.6320 c2         1 MQ9      -0.089400
     17 C10          3.5040    -1.3960   -11.0460 c3         1 MQ9      -0.056900
     18 C11          2.4170    -0.1100    -9.1490 c3         1 MQ9      -0.042200
     19 C12          1.4040    -1.1340    -8.6100 c3         1 MQ9      -0.035200
     20 C13          1.3020    -1.0580    -7.1190 c2         1 MQ9      -0.172200
     21 C14          0.2850    -0.6040    -6.3800 c2         1 MQ9      -0.111400
     22 C15         -1.0150    -0.1040    -6.9380 c3         1 MQ9      -0.054900
     23 C16          0.4030    -0.5550    -4.8800 c3         1 MQ9      -0.038200
     24 C17          0.3420     0.8740    -4.3150 c3         1 MQ9      -0.036200
     25 C18          0.4930     0.8820    -2.8270 c2         1 MQ9      -0.172200
     26 C19          1.5290     1.3220    -2.1080 c2         1 MQ9      -0.111400
     27 C20          2.7660     1.9400    -2.6960 c3         1 MQ9      -0.054900
     28 C21          1.5220     1.1990    -0.6080 c3         1 MQ9      -0.038200
     29 C22          2.5960     0.2370    -0.0740 c3         1 MQ9      -0.036200
     30 C23          2.5720     0.1720     1.4220 c2         1 MQ9      -0.172200
     31 C24          2.1040    -0.8120     2.1940 c2         1 MQ9      -0.111400
     32 C25          1.5320    -2.0990     1.6740 c3         1 MQ9      -0.054900
     33 C26          2.1070    -0.6700     3.6930 c3         1 MQ9      -0.038200
     34 C27          0.6960    -0.5410     4.2910 c3         1 MQ9      -0.036200
     35 C28          0.7380    -0.4850     5.7850 c2         1 MQ9      -0.172200
     36 C29          0.4980     0.5610     6.5810 c2         1 MQ9      -0.111400
     37 C30          0.1000     1.9250     6.0960 c3         1 MQ9      -0.055900
     38 C31          0.6270     0.4200     8.0730 c3         1 MQ9      -0.040200
     39 C32          1.7600     1.2620     8.6820 c3         1 MQ9      -0.036200
     40 C33          1.8180     1.1000    10.1690 c2         1 MQ9      -0.174200
     41 C34          2.7600     0.4950    10.8990 c2         1 MQ9      -0.111400
     42 C35          4.0050    -0.1260    10.3400 c3         1 MQ9      -0.054900
     43 C36          2.5900     0.3680    12.3910 c3         1 MQ9      -0.038200
     44 C37          2.1900    -1.0550    12.8180 c3         1 MQ9      -0.040200
     45 C38          1.9250    -1.1670    14.2910 c2         1 MQ9      -0.171200
     46 C39          0.7380    -0.9870    14.8760 c2         1 MQ9      -0.112400
     47 C40          0.5560    -1.1290    16.3570 c3         1 MQ9      -0.053900
     48 C41         -0.5010    -0.6540    14.0870 c3         1 MQ9      -0.041200
     49 C42         -1.2880    -1.8990    13.6360 c3         1 MQ9      -0.035200
     50 C43         -2.4710    -1.4940    12.8140 c2         1 MQ9      -0.174200
     51 C44         -2.4950    -1.3770    11.4840 c2         1 MQ9      -0.113400
     52 C45         -1.3230    -1.7330    10.6090 c3         1 MQ9      -0.058900
     53 C46         -3.6880    -0.7900    10.7860 c3         1 MQ9      -0.036200
     54 C47         -3.3620     0.5730    10.1520 c3         1 MQ9      -0.037200
     55 C48         -4.5490     1.1730     9.4680 c2         1 MQ9      -0.173200
     56 C49         -5.2250     2.2730     9.8100 c2         1 MQ9      -0.112400
     57 C50         -6.4180     2.7210     9.0150 c3         1 MQ9      -0.055900
     58 C51         -4.8960     3.1540    10.9790 c3         1 MQ9      -0.055900
     59 H5M3        -0.4070     3.6270   -13.8700 hc         1 MQ9       0.056033
     60 H5M2         0.6900     3.1230   -12.5920 hc         1 MQ9       0.056033
     61 H5M1         1.2560     3.2020   -14.2510 hc         1 MQ9       0.056033
     62 H3A         -3.7560     0.4350   -15.2950 ha         1 MQ9       0.156000
     63 H3B         -4.5120    -1.8900   -15.6100 ha         1 MQ9       0.139000
     64 H3C         -3.0050    -3.7690   -15.0590 ha         1 MQ9       0.139000
     65 H3D         -0.7370    -3.3250   -14.1990 ha         1 MQ9       0.156000
     66 H72          2.5850     1.6590   -13.2830 hc         1 MQ9       0.063200
     67 H71          2.8800    -0.0620   -13.3480 hc         1 MQ9       0.063200
     68 H8           1.5180     1.4550   -11.0270 ha         1 MQ9       0.116000
     69 H103         3.1100    -2.3330   -10.6470 hc         1 MQ9       0.044033
     70 H102         3.5860    -1.5130   -12.1230 hc         1 MQ9       0.044033
     71 H101         4.5120    -1.2860   -10.6390 hc         1 MQ9       0.044033
     72 H112         2.0550     0.8920    -8.9070 hc         1 MQ9       0.045200
     73 H111         3.3650    -0.2370    -8.6160 hc         1 MQ9       0.045200
     74 H121         1.7190    -2.1430    -8.8950 hc         1 MQ9       0.047700
     75 H122         0.4420    -0.9630    -9.0950 hc         1 MQ9       0.047700
     76 H13          2.1940    -1.3840    -6.5900 ha         1 MQ9       0.114000
     77 H153        -1.1310    -0.2990    -8.0020 hc         1 MQ9       0.039033
     78 H152        -1.8580    -0.5690    -6.4200 hc         1 MQ9       0.039033
     79 H151        -1.1200     0.9730    -6.7920 hc         1 MQ9       0.039033
     80 H162         1.3400    -1.0190    -4.5650 hc         1 MQ9       0.044700
     81 H161        -0.4060    -1.1430    -4.4290 hc         1 MQ9       0.044700
     82 H172        -0.6210     1.3220    -4.5780 hc         1 MQ9       0.045200
     83 H171         1.1090     1.4790    -4.8020 hc         1 MQ9       0.045200
     84 H18         -0.3400     0.4400    -2.2830 ha         1 MQ9       0.115000
     85 H203         2.6340     2.2680    -3.7250 hc         1 MQ9       0.038700
     86 H202         3.0800     2.8060    -2.1100 hc         1 MQ9       0.038700
     87 H201         3.6040     1.2380    -2.6880 hc         1 MQ9       0.038700
     88 H212         0.5440     0.8540    -0.2650 hc         1 MQ9       0.045200
     89 H211         1.6840     2.1860    -0.1610 hc         1 MQ9       0.045200
     90 H222         3.5830     0.5750    -0.4020 hc         1 MQ9       0.045700
     91 H221         2.4400    -0.7460    -0.5230 hc         1 MQ9       0.045700
     92 H23          2.9500     1.0610     1.9230 ha         1 MQ9       0.115000
     93 H253         1.6750    -2.2330     0.6040 hc         1 MQ9       0.039033
     94 H252         1.9850    -2.9530     2.1820 hc         1 MQ9       0.039033
     95 H251         0.4580    -2.1610     1.8650 hc         1 MQ9       0.039033
     96 H262         2.6890     0.2070     3.9850 hc         1 MQ9       0.045200
     97 H261         2.6010    -1.5390     4.1430 hc         1 MQ9       0.045200
     98 H272         0.0940    -1.4020     3.9860 hc         1 MQ9       0.045700
     99 H271         0.2130     0.3410     3.8660 hc         1 MQ9       0.045700
    100 H28          1.0350    -1.4170     6.2640 ha         1 MQ9       0.114000
    101 H303        -0.7630     2.2930     6.6570 hc         1 MQ9       0.039367
    102 H302         0.9030     2.6480     6.2540 hc         1 MQ9       0.039367
    103 H301        -0.1540     1.9480     5.0390 hc         1 MQ9       0.039367
    104 H312         0.7930    -0.6270     8.3370 hc         1 MQ9       0.044200
    105 H311        -0.3180     0.7130     8.5470 hc         1 MQ9       0.044200
    106 H321         1.5950     2.3170     8.4420 hc         1 MQ9       0.046200
    107 H322         2.7010     0.9820     8.2070 hc         1 MQ9       0.046200
    108 H33          0.9590     1.5030    10.7020 ha         1 MQ9       0.115000
    109 H353         4.8900     0.2880    10.8280 hc         1 MQ9       0.039367
    110 H352         4.0270    -1.2030    10.5240 hc         1 MQ9       0.039367
    111 H351         4.1180     0.0200     9.2680 hc         1 MQ9       0.039367
    112 H362         1.8210     1.0630    12.7370 hc         1 MQ9       0.045700
    113 H361         3.5170     0.6480    12.9030 hc         1 MQ9       0.045700
    114 H372         2.9830    -1.7560    12.5440 hc         1 MQ9       0.045200
    115 H371         1.3110    -1.3530    12.2410 hc         1 MQ9       0.045200
    116 H38          2.7830    -1.3950    14.9180 ha         1 MQ9       0.118000
    117 H403         1.4770    -1.4310    16.8570 hc         1 MQ9       0.038700
    118 H402         0.2220    -0.1890    16.8040 hc         1 MQ9       0.038700
    119 H401        -0.2110    -1.8710    16.5920 hc         1 MQ9       0.038700
    120 H412        -0.2490    -0.0700    13.1990 hc         1 MQ9       0.045700
    121 H411        -1.1600    -0.0190    14.6880 hc         1 MQ9       0.045700
    122 H422        -1.6110    -2.4650    14.5140 hc         1 MQ9       0.045700
    123 H421        -0.6160    -2.5520    13.0740 hc         1 MQ9       0.045700
    124 H43         -3.3540    -1.1850    13.3690 ha         1 MQ9       0.117000
    125 H453        -1.6390    -1.9230     9.5820 hc         1 MQ9       0.040033
    126 H452        -0.5900    -0.9220    10.5690 hc         1 MQ9       0.040033
    127 H451        -0.7950    -2.6190    10.9610 hc         1 MQ9       0.040033
    128 H462        -4.5110    -0.6640    11.4940 hc         1 MQ9       0.046200
    129 H461        -4.0430    -1.4680    10.0020 hc         1 MQ9       0.046200
    130 H472        -2.5580     0.4410     9.4210 hc         1 MQ9       0.045200
    131 H471        -2.9640     1.2300    10.9260 hc         1 MQ9       0.045200
    132 H48         -4.9030     0.6190     8.6010 ha         1 MQ9       0.115000
    133 H503        -6.2640     3.7230     8.6070 hc         1 MQ9       0.038367
    134 H502        -6.6330     2.0490     8.1840 hc         1 MQ9       0.038367
    135 H501        -7.3110     2.7770     9.6440 hc         1 MQ9       0.038367
    136 H513        -4.0090     2.8400    11.5260 hc         1 MQ9       0.038367
    137 H512        -4.7370     4.1840    10.6510 hc         1 MQ9       0.038367
    138 H511        -5.7300     3.1790    11.6850 hc         1 MQ9       0.038367
@<TRIPOS>BOND
     1     1     2 1   
     2     1     3 1   
     3     1     9 2   
     4     2    59 1   
     5     2    60 1   
     6     2    61 1   
     7     3     4 2   
     8     3     5 1   
     9     5     6 ar  
    10     5    10 ar  
    11     6     7 1   
    12     6    13 ar  
    13     7     8 2   
    14     7     9 1   
    15     9    14 1   
    16    10    11 ar  
    17    10    62 1   
    18    11    12 ar  
    19    11    63 1   
    20    12    13 ar  
    21    12    64 1   
    22    13    65 1   
    23    14    15 1   
    24    14    66 1   
    25    14    67 1   
    26    15    16 2   
    27    15    68 1   
    28    16    17 1   
    29    16    18 1   
    30    17    69 1   
    31    17    70 1   
    32    17    71 1   
    33    18    19 1   
    34    18    72 1   
    35    18    73 1   
    36    19    20 1   
    37    19    74 1   
    38    19    75 1   
    39    20    21 2   
    40    20    76 1   
    41    21    22 1   
    42    21    23 1   
    43    22    77 1   
    44    22    78 1   
    45    22    79 1   
    46    23    24 1   
    47    23    80 1   
    48    23    81 1   
    49    24    25 1   
    50    24    82 1   
    51    24    83 1   
    52    25    26 2   
    53    25    84 1   
    54    26    27 1   
    55    26    28 1   
    56    27    85 1   
    57    27    86 1   
    58    27    87 1   
    59    28    29 1   
    60    28    88 1   
    61    28    89 1   
    62    29    30 1   
    63    29    90 1   
    64    29    91 1   
    65    30    31 2   
    66    30    92 1   
    67    31    32 1   
    68    31    33 1   
    69    32    93 1   
    70    32    94 1   
    71    32    95 1   
    72    33    34 1   
    73    33    96 1   
    74    33    97 1   
    75    34    35 1   
    76    34    98 1   
    77    34    99 1   
    78    35    36 2   
    79    35   100 1   
    80    36    37 1   
    81    36    38 1   
    82    37   101 1   
    83    37   102 1   
    84    37   103 1   
    85    38    39 1   
    86    38   104 1   
    87    38   105 1   
    88    39    40 1   
    89    39   106 1   
    90    39   107 1   
    91    40    41 2   
    92    40   108 1   
    93    41    42 1   
    94    41    43 1   
    95    42   109 1   
    96    42   110 1   
    97    42   111 1   
    98    43    44 1   
    99    43   112 1   
   100    43   113 1   
   101    44    45 1   
   102    44   114 1   
   103    44   115 1   
   104    45    46 2   
   105    45   116 1   
   106    46    47 1   
   107    46    48 1   
   108    47   117 1   
   109    47   118 1   
   110    47   119 1   
   111    48    49 1   
   112    48   120 1   
   113    48   121 1   
   114    49    50 1   
   115    49   122 1   
   116    49   123 1   
   117    50    51 2   
   118    50   124 1   
   119    51    52 1   
   120    51    53 1   
   121    52   125 1   
   122    52   126 1   
   123    52   127 1   
   124    53    54 1   
   125    53   128 1   
   126    53   129 1   
   127    54    55 1   
   128    54   130 1   
   129    54   131 1   
   130    55    56 2   
   131    55   132 1   
   132    56    57 1   
   133    56    58 1   
   134    57   133 1   
   135    57   134 1   
   136    57   135 1   
   137    58   136 1   
   138    58   137 1   
   139    58   138 1   
@<TRIPOS>SUBSTRUCTURE
     1 MQ9         1 TEMP              0 ****  ****    0 ROOT
