@<TRIPOS>MOLECULE
MQA
   44    47     1     0     0
SMALL
No Charge or Current Charge


@<TRIPOS>ATOM
      1 C1           2.7540     1.7300    -0.1840 cx         1 MQA       0.053500
      2 C2           2.3080     2.7320    -1.2200 cx         1 MQA       0.032500
      3 C3           0.7930     3.0080    -1.0700 c5         1 MQA       0.268800
      4 C5          -2.0050     1.7750    -0.5100 c          1 MQA       0.582500
      5 C6          -3.0320     0.6960    -0.6130 cc         1 MQA      -0.188400
      6 C7          -2.7850    -0.5720    -0.0910 cd         1 MQA       0.061900
      7 C8          -1.4490    -0.9670     0.5130 c          1 MQA       0.585500
      8 C9           1.0590     0.0000     0.8960 c5         1 MQA      -0.010500
      9 C10          1.9040    -1.0390     0.1030 c3         1 MQA       0.195600
     10 C11          2.2110    -3.4090    -0.0200 c          1 MQA       0.642100
     11 O5          -2.2480     2.9330    -0.8440 o          1 MQA      -0.495100
     12 CM6         -4.3540     1.1350    -1.2300 c3         1 MQA      -0.044900
     13 O7          -3.8680    -1.4360    -0.1730 os         1 MQA      -0.352100
     14 C24         -3.8330    -2.7990     0.2920 c3         1 MQA       0.157900
     15 O8          -1.2160    -2.0540     1.0270 o          1 MQA      -0.500100
     16 C4A         -0.6490     1.3460    -0.0100 cc         1 MQA       0.128800
     17 C8A         -0.4040     0.0800     0.4510 cd         1 MQA      -0.304400
     18 N4           0.4140     2.2240     0.1470 nh         1 MQA      -0.667400
     19 C9A          1.5410     1.5080     0.7750 c5         1 MQA       0.470200
     20 O24          1.8500     2.0730     2.0740 os         1 MQA      -0.448000
     21 C25          0.7860     2.2390     3.0350 c3         1 MQA       0.146900
     22 N2           2.7450     1.3740    -1.6410 n5         1 MQA      -0.773400
     23 O10          1.5900    -2.3590     0.5760 os         1 MQA      -0.451100
     24 O11          3.0360    -3.3500    -0.9130 o          1 MQA      -0.555000
     25 N12          1.7880    -4.5560     0.5250 nt         1 MQA      -0.594000
     26 H1           3.7470     1.8300     0.2580 h1         1 MQA       0.114700
     27 H2           2.9790     3.5490    -1.4970 h1         1 MQA       0.103700
     28 H3           0.5880     4.0760    -0.9210 h1         1 MQA       0.075700
     29 H3A          0.2390     2.6920    -1.9650 h1         1 MQA       0.075700
     30 H9           1.1310    -0.3230     1.9400 hc         1 MQA       0.089700
     31 H10          1.6850    -0.9470    -0.9690 h1         1 MQA       0.059700
     32 H10A         2.9730    -0.8410     0.2610 h1         1 MQA       0.059700
     33 HM6         -4.1970     1.7710    -2.1100 hc         1 MQA       0.055033
     34 HM6A        -4.9630     0.2890    -1.5670 hc         1 MQA       0.055033
     35 HM6B        -4.9500     1.7050    -0.5060 hc         1 MQA       0.055033
     36 H24         -3.0620    -3.3750    -0.2350 h1         1 MQA       0.041700
     37 H24A        -3.6410    -2.8420     1.3710 h1         1 MQA       0.041700
     38 H24B        -4.7990    -3.2850     0.1060 h1         1 MQA       0.041700
     39 H25          1.1850     2.6410     3.9750 h1         1 MQA       0.038700
     40 H25A         0.0280     2.9430     2.6670 h1         1 MQA       0.038700
     41 H25B         0.2920     1.2860     3.2600 h1         1 MQA       0.038700
     42 HN2          3.7020     1.4290    -2.0260 hn         1 MQA       0.415000
     43 HN12         1.0960    -4.5250     1.2570 hn         1 MQA       0.329000
     44 HN1A         2.1560    -5.4330     0.1910 hn         1 MQA       0.329000
@<TRIPOS>BOND
     1     1     2 1   
     2     1    19 1   
     3     1    22 1   
     4     1    26 1   
     5     2     3 1   
     6     2    22 1   
     7     2    27 1   
     8     3    18 1   
     9     3    28 1   
    10     3    29 1   
    11     4     5 1   
    12     4    11 2   
    13     4    16 1   
    14     5     6 2   
    15     5    12 1   
    16     6     7 1   
    17     6    13 1   
    18     7    15 2   
    19     7    17 1   
    20     8     9 1   
    21     8    17 1   
    22     8    19 1   
    23     8    30 1   
    24     9    23 1   
    25     9    31 1   
    26     9    32 1   
    27    10    23 1   
    28    10    24 2   
    29    10    25 1   
    30    12    33 1   
    31    12    34 1   
    32    12    35 1   
    33    13    14 1   
    34    14    36 1   
    35    14    37 1   
    36    14    38 1   
    37    16    17 2   
    38    16    18 1   
    39    18    19 1   
    40    19    20 1   
    41    20    21 1   
    42    21    39 1   
    43    21    40 1   
    44    21    41 1   
    45    22    42 1   
    46    25    43 1   
    47    25    44 1   
@<TRIPOS>SUBSTRUCTURE
     1 MQA         1 TEMP              0 ****  ****    0 ROOT
