@<TRIPOS>MOLECULE
MQA
   44    47     1     0     0
SMALL
abcg2


@<TRIPOS>ATOM
      1 C1           2.7240     1.8010    -0.0860 cx         1 MQA       0.053500
      2 C2           2.2800     2.9140    -0.9450 cx         1 MQA       0.032500
      3 C3           0.8060     3.1590    -0.7250 c5         1 MQA       0.268800
      4 C5          -1.9110     1.4600    -0.6700 c          1 MQA       0.582500
      5 C6          -2.9190     0.3850    -0.7220 cc         1 MQA      -0.188400
      6 C7          -2.6190    -0.8150    -0.1960 cd         1 MQA       0.061900
      7 C8          -1.2840    -1.1430     0.4380 c          1 MQA       0.585500
      8 C9           1.1530    -0.1430     0.8220 c5         1 MQA      -0.010500
      9 C10          2.0650    -1.0150    -0.0330 c3         1 MQA       0.195600
     10 C11          2.4130    -3.3180    -0.3960 c          1 MQA       0.642100
     11 O5          -2.1590     2.5900    -1.0330 o          1 MQA      -0.495100
     12 CM6         -4.2330     0.7250    -1.3460 c3         1 MQA      -0.044900
     13 O7          -3.4930    -1.8360    -0.2180 os         1 MQA      -0.352100
     14 C24         -4.3240    -1.9570     0.9350 c3         1 MQA       0.157900
     15 O8          -1.1410    -2.2300     0.9690 o          1 MQA      -0.500100
     16 C4A         -0.5750     1.1100    -0.1190 cc         1 MQA       0.128800
     17 C8A         -0.2790    -0.1240     0.3600 cd         1 MQA      -0.304400
     18 N4           0.4160     2.0010     0.0640 nh         1 MQA      -0.667400
     19 C9A          1.5410     1.3670     0.7540 c5         1 MQA       0.470200
     20 O24          1.7690     1.9430     2.0050 os         1 MQA      -0.448000
     21 C25          0.6880     1.9340     2.9150 c3         1 MQA       0.146900
     22 N2           2.5250     1.5980    -1.5080 n5         1 MQA      -0.773400
     23 O10          1.7110    -2.3670     0.2280 os         1 MQA      -0.451100
     24 O11          3.3660    -3.0950    -1.1160 o          1 MQA      -0.555000
     25 N12          1.9100    -4.5350    -0.1290 nt         1 MQA      -0.594000
     26 H1           3.7190     1.7620     0.3400 h1         1 MQA       0.114700
     27 H2           2.9350     3.7410    -1.1890 h1         1 MQA       0.103700
     28 H3           0.6410     4.0890    -0.1770 h1         1 MQA       0.075700
     29 H3A          0.2480     3.2060    -1.6570 h1         1 MQA       0.075700
     30 H9           1.2470    -0.4850     1.8570 hc         1 MQA       0.089700
     31 H10          1.9420    -0.7840    -1.0910 h1         1 MQA       0.059700
     32 H10A         3.1080    -0.8390     0.2410 h1         1 MQA       0.059700
     33 HM6         -4.0930     1.1230    -2.3520 hc         1 MQA       0.055033
     34 HM6A        -4.8820    -0.1430    -1.4140 hc         1 MQA       0.055033
     35 HM6B        -4.7530     1.4910    -0.7680 hc         1 MQA       0.055033
     36 H24         -3.7370    -2.0600     1.8480 h1         1 MQA       0.041700
     37 H24A        -4.9870    -1.0940     1.0320 h1         1 MQA       0.041700
     38 H24B        -4.9250    -2.8520     0.7970 h1         1 MQA       0.041700
     39 H25          1.0300     2.4370     3.8170 h1         1 MQA       0.038700
     40 H25A        -0.1820     2.4730     2.5290 h1         1 MQA       0.038700
     41 H25B         0.3750     0.9220     3.1880 h1         1 MQA       0.038700
     42 HN2          3.4190     1.5650    -1.9830 hn         1 MQA       0.415000
     43 HN12         1.1690    -4.6600     0.5390 hn         1 MQA       0.329000
     44 HN1A         2.4200    -5.3500    -0.4190 hn         1 MQA       0.329000
@<TRIPOS>BOND
     1     1     2 1   
     2     1    19 1   
     3     1    22 1   
     4     1    26 1   
     5     2     3 1   
     6     2    22 1   
     7     2    27 1   
     8     3    18 1   
     9     3    28 1   
    10     3    29 1   
    11     4     5 1   
    12     4    11 2   
    13     4    16 1   
    14     5     6 2   
    15     5    12 1   
    16     6     7 1   
    17     6    13 1   
    18     7    15 2   
    19     7    17 1   
    20     8     9 1   
    21     8    17 1   
    22     8    19 1   
    23     8    30 1   
    24     9    23 1   
    25     9    31 1   
    26     9    32 1   
    27    10    23 1   
    28    10    24 2   
    29    10    25 1   
    30    12    33 1   
    31    12    34 1   
    32    12    35 1   
    33    13    14 1   
    34    14    36 1   
    35    14    37 1   
    36    14    38 1   
    37    16    17 2   
    38    16    18 1   
    39    18    19 1   
    40    19    20 1   
    41    20    21 1   
    42    21    39 1   
    43    21    40 1   
    44    21    41 1   
    45    22    42 1   
    46    25    43 1   
    47    25    44 1   
@<TRIPOS>SUBSTRUCTURE
     1 MQA         1 TEMP              0 ****  ****    0 ROOT
