@<TRIPOS>MOLECULE
MQB
   20    21     1     0     0
SMALL
No Charge or Current Charge


@<TRIPOS>ATOM
      1 C4         -11.9080   -14.0880    89.7650 cc         1 MQB      -0.134900
      2 C5         -13.3710   -12.5470    90.3080 ca         1 MQB       0.056100
      3 C6         -14.0000   -11.3290    90.5980 ca         1 MQB      -0.129000
      4 C7         -15.3660   -11.3560    90.9580 ca         1 MQB      -0.109000
      5 C8         -16.0660   -12.5850    91.0210 ca         1 MQB      -0.162000
      6 C10        -14.0550   -13.7310    90.3720 ca         1 MQB      -0.087800
      7 O1         -15.1980   -16.6030    88.5070 o          1 MQB      -0.725500
      8 C1         -13.9800   -16.6330    88.6040 c          1 MQB       0.724000
      9 O2         -13.2340   -16.8550    87.6610 o          1 MQB      -0.725500
     10 C3         -13.1030   -14.7400    90.0180 cd         1 MQB      -0.026400
     11 O3         -12.0530   -12.7100    89.9410 os         1 MQB      -0.198200
     12 C9         -15.4090   -13.7990    90.7240 ca         1 MQB      -0.027000
     13 H1         -10.9340   -14.4620    89.4700 h4         1 MQB       0.222000
     14 H2         -13.4510   -10.3920    90.5460 ha         1 MQB       0.109000
     15 H3         -15.8820   -10.4260    91.1890 ha         1 MQB       0.092000
     16 H4         -17.1180   -12.5950    91.2980 ha         1 MQB       0.097000
     17 H6         -14.0300   -16.4730    90.7680 hc         1 MQB       0.031700
     18 H7         -12.3670   -16.7070    90.0490 hc         1 MQB       0.031700
     19 H8         -15.9350   -14.7500    90.7650 ha         1 MQB       0.132000
     20 C2         -13.3480   -16.2270    89.9450 c3         1 MQB      -0.171200
@<TRIPOS>BOND
     1     1    10 2   
     2     1    11 1   
     3     1    13 1   
     4     2     3 ar  
     5     2     6 ar  
     6     2    11 1   
     7     3     4 ar  
     8     3    14 1   
     9     4     5 ar  
    10     4    15 1   
    11     5    12 ar  
    12     5    16 1   
    13     6    10 1   
    14     6    12 ar  
    15     7     8 1   
    16     8     9 1   
    17     8    20 1   
    18    10    20 1   
    19    12    19 1   
    20    17    20 1   
    21    18    20 1   
@<TRIPOS>SUBSTRUCTURE
     1 MQB         1 TEMP              0 ****  ****    0 ROOT
