@<TRIPOS>MOLECULE
MQB
   20    21     1     0     0
SMALL
abcg2


@<TRIPOS>ATOM
      1 C4         -11.9000   -14.1130    89.9270 cc         1 MQB      -0.134900
      2 C5         -13.3330   -12.5370    90.3550 ca         1 MQB       0.056100
      3 C6         -13.9220   -11.3090    90.6030 ca         1 MQB      -0.129000
      4 C7         -15.2880   -11.3160    90.8410 ca         1 MQB      -0.109000
      5 C8         -16.0250   -12.5080    90.8280 ca         1 MQB      -0.162000
      6 C10        -14.0410   -13.7400    90.3340 ca         1 MQB      -0.087800
      7 O1         -14.6110   -17.8240    88.7490 o          1 MQB      -0.725500
      8 C1         -14.1800   -16.6550    88.7100 c          1 MQB       0.724000
      9 O2         -14.3320   -15.8220    87.8000 o          1 MQB      -0.725500
     10 C3         -13.0730   -14.7680    90.0440 cd         1 MQB      -0.026400
     11 O3         -12.0270   -12.7650    90.1030 os         1 MQB      -0.198200
     12 C9         -15.4150   -13.7240    90.5730 ca         1 MQB      -0.027000
     13 H1         -10.9020   -14.4680    89.7210 h4         1 MQB       0.222000
     14 H2         -13.3490   -10.3910    90.6130 ha         1 MQB       0.109000
     15 H3         -15.7950   -10.3810    91.0420 ha         1 MQB       0.092000
     16 H4         -17.0890   -12.4720    91.0190 ha         1 MQB       0.097000
     17 H6         -13.8240   -16.5810    90.8480 hc         1 MQB       0.031700
     18 H7         -12.3790   -16.7650    89.8910 hc         1 MQB       0.031700
     19 H8         -15.9920   -14.6400    90.5670 ha         1 MQB       0.132000
     20 C2         -13.3310   -16.2270    89.9380 c3         1 MQB      -0.171200
@<TRIPOS>BOND
     1     1    10 2   
     2     1    11 1   
     3     1    13 1   
     4     2     3 ar  
     5     2     6 ar  
     6     2    11 1   
     7     3     4 ar  
     8     3    14 1   
     9     4     5 ar  
    10     4    15 1   
    11     5    12 ar  
    12     5    16 1   
    13     6    10 1   
    14     6    12 ar  
    15     7     8 1   
    16     8     9 1   
    17     8    20 1   
    18    10    20 1   
    19    12    19 1   
    20    17    20 1   
    21    18    20 1   
@<TRIPOS>SUBSTRUCTURE
     1 MQB         1 TEMP              0 ****  ****    0 ROOT
