@<TRIPOS>MOLECULE
MQC
   41    43     1     0     0
SMALL
No Charge or Current Charge


@<TRIPOS>ATOM
      1 N1           1.5270   -15.4500   -11.0820 n2         1 MQC      -0.821100
      2 C1           0.9060   -14.3430   -11.0600 ce         1 MQC       0.656800
      3 N4           1.0200   -13.5650    -9.9620 nv         1 MQC      -1.073200
      4 C2           0.1660   -13.7930   -12.2430 ca         1 MQC      -0.150900
      5 C18         -0.8550   -12.8260   -12.0910 ca         1 MQC      -0.070000
      6 C17         -1.5740   -12.3370   -13.2110 ca         1 MQC      -0.134000
      7 C3           0.4260   -14.2930   -13.5360 ca         1 MQC      -0.056000
      8 C4          -0.2870   -13.8140   -14.6450 ca         1 MQC      -0.103000
      9 C5          -1.2860   -12.8380   -14.5030 ca         1 MQC       0.313000
     10 N2          -1.9460   -12.4150   -15.6030 nb         1 MQC      -0.699000
     11 C6          -2.9080   -11.4840   -15.4690 ca         1 MQC       0.410300
     12 C7          -3.5950   -11.0370   -16.7440 c3         1 MQC      -0.151400
     13 C8          -3.2550   -10.9350   -14.2350 ca         1 MQC      -0.253000
     14 C9          -2.5940   -11.3690   -13.0850 ca         1 MQC       0.375000
     15 N3          -2.9220   -10.7980   -11.8500 nu         1 MQC      -0.983000
     16 C10         -4.0960   -10.2650   -11.3220 ca         1 MQC       0.334000
     17 C16         -5.3570   -10.6210   -11.8260 ca         1 MQC      -0.183000
     18 C11         -4.0090    -9.3860   -10.2340 ca         1 MQC      -0.198000
     19 C12         -5.1710    -8.8400    -9.6660 ca         1 MQC      -0.044000
     20 C13         -6.4310    -9.1850   -10.1830 ca         1 MQC      -0.222000
     21 C14         -6.5250   -10.0830   -11.2670 ca         1 MQC       0.168100
     22 O1          -7.7340   -10.4690   -11.8090 os         1 MQC      -0.340100
     23 C15         -8.9900    -9.9780   -11.3090 c3         1 MQC       0.148900
     24 H11          1.7770   -15.6920   -10.1170 hn         1 MQC       0.371400
     25 H10          1.8300   -13.7410    -9.3790 hn         1 MQC       0.457000
     26 H9           0.7920   -12.5870   -10.0970 hn         1 MQC       0.457000
     27 H1          -1.1020   -12.4730   -11.0930 ha         1 MQC       0.112000
     28 H2           1.1900   -15.0540   -13.6880 ha         1 MQC       0.140000
     29 H3          -0.0650   -14.2090   -15.6330 ha         1 MQC       0.135000
     30 H15         -3.6670   -11.8560   -17.4700 hc         1 MQC       0.053700
     31 H17         -4.6130   -10.6850   -16.5430 hc         1 MQC       0.053700
     32 H16         -3.0420   -10.2160   -17.2140 hc         1 MQC       0.053700
     33 H4          -4.0150   -10.1640   -14.1830 ha         1 MQC       0.133000
     34 H14         -2.1360   -10.7540   -11.2050 hn         1 MQC       0.494000
     35 H5          -5.4400   -11.3290   -12.6430 ha         1 MQC       0.141000
     36 H8          -3.0380    -9.1140    -9.8290 ha         1 MQC       0.114000
     37 H7          -5.0960    -8.1510    -8.8260 ha         1 MQC       0.113000
     38 H6          -7.3170    -8.7510    -9.7290 ha         1 MQC       0.120000
     39 H18         -9.8210   -10.4100   -11.8800 h1         1 MQC       0.042033
     40 H20         -9.1240   -10.2520   -10.2540 h1         1 MQC       0.042033
     41 H19         -9.0460    -8.8860   -11.4000 h1         1 MQC       0.042033
@<TRIPOS>BOND
     1     1     2 2   
     2     1    24 1   
     3     2     3 1   
     4     2     4 1   
     5     3    25 1   
     6     3    26 1   
     7     4     5 ar  
     8     4     7 ar  
     9     5     6 ar  
    10     5    27 1   
    11     6     9 ar  
    12     6    14 ar  
    13     7     8 ar  
    14     7    28 1   
    15     8     9 ar  
    16     8    29 1   
    17     9    10 ar  
    18    10    11 ar  
    19    11    12 1   
    20    11    13 ar  
    21    12    30 1   
    22    12    31 1   
    23    12    32 1   
    24    13    14 ar  
    25    13    33 1   
    26    14    15 1   
    27    15    16 1   
    28    15    34 1   
    29    16    17 ar  
    30    16    18 ar  
    31    17    21 ar  
    32    17    35 1   
    33    18    19 ar  
    34    18    36 1   
    35    19    20 ar  
    36    19    37 1   
    37    20    21 ar  
    38    20    38 1   
    39    21    22 1   
    40    22    23 1   
    41    23    39 1   
    42    23    40 1   
    43    23    41 1   
@<TRIPOS>SUBSTRUCTURE
     1 MQC         1 TEMP              0 ****  ****    0 ROOT
