@<TRIPOS>MOLECULE
MQC
   41    43     1     0     0
SMALL
bcc


@<TRIPOS>ATOM
      1 N1           1.6240   -15.4450   -11.3310 n2         1 MQC      -0.821100
      2 C1           1.0040   -14.3440   -11.1400 ce         1 MQC       0.656800
      3 N4           0.9420   -13.6480    -9.9650 nv         1 MQC      -0.962800
      4 C2           0.2210   -13.7700   -12.2670 ca         1 MQC      -0.150900
      5 C18         -0.8440   -12.9250   -12.0540 ca         1 MQC      -0.088000
      6 C17         -1.5900   -12.3970   -13.1270 ca         1 MQC      -0.199300
      7 C3           0.5590   -14.1250   -13.5900 ca         1 MQC      -0.074000
      8 C4          -0.1580   -13.6410   -14.6460 ca         1 MQC      -0.186300
      9 C5          -1.2560   -12.7730   -14.4500 ca         1 MQC       0.443600
     10 N2          -1.9380   -12.3550   -15.5420 nb         1 MQC      -0.699000
     11 C6          -2.9610   -11.5560   -15.3550 ca         1 MQC       0.475600
     12 C7          -3.7090   -11.0800   -16.5640 c3         1 MQC      -0.151400
     13 C8          -3.3740   -11.1060   -14.0870 ca         1 MQC      -0.336300
     14 C9          -2.6980   -11.5030   -12.9540 ca         1 MQC       0.236600
     15 N3          -3.0120   -11.0760   -11.6930 nu         1 MQC      -0.651000
     16 C10         -4.1560   -10.3880   -11.2850 ca         1 MQC       0.195600
     17 C16         -5.4160   -10.7170   -11.7690 ca         1 MQC      -0.201000
     18 C11         -4.0250    -9.3910   -10.3140 ca         1 MQC      -0.216000
     19 C12         -5.1530    -8.7360    -9.8590 ca         1 MQC      -0.062000
     20 C13         -6.4180    -9.0340   -10.3530 ca         1 MQC      -0.240000
     21 C14         -6.5440   -10.0330   -11.3150 ca         1 MQC       0.168100
     22 O1          -7.7140   -10.4230   -11.8530 os         1 MQC      -0.316900
     23 C15         -8.9050    -9.8190   -11.3900 c3         1 MQC       0.125700
     24 H11          2.1470   -15.7210   -10.5050 hn         1 MQC       0.371400
     25 H10          1.5640   -13.9420    -9.2280 hn         1 MQC       0.401800
     26 H9           0.8280   -12.6490   -10.0120 hn         1 MQC       0.401800
     27 H1          -1.1360   -12.7000   -11.0360 ha         1 MQC       0.130000
     28 H2           1.3960   -14.7890   -13.7570 ha         1 MQC       0.158000
     29 H3           0.1000   -13.9140   -15.6620 ha         1 MQC       0.153000
     30 H15         -3.3170   -11.5390   -17.4690 hc         1 MQC       0.053700
     31 H17         -4.7710   -11.3140   -16.4840 hc         1 MQC       0.053700
     32 H16         -3.6290    -9.9960   -16.6640 hc         1 MQC       0.053700
     33 H4          -4.2070   -10.4190   -14.0280 ha         1 MQC       0.151000
     34 H14         -2.2580   -11.0660   -11.0250 hn         1 MQC       0.438800
     35 H5          -5.5440   -11.5170   -12.4860 ha         1 MQC       0.159000
     36 H8          -3.0460    -9.1360    -9.9270 ha         1 MQC       0.132000
     37 H7          -5.0530    -7.9640    -9.1070 ha         1 MQC       0.131000
     38 H6          -7.2740    -8.4870    -9.9820 ha         1 MQC       0.138000
     39 H18         -9.7210   -10.2870   -11.9350 h1         1 MQC       0.042033
     40 H20         -9.0560    -9.9820   -10.3200 h1         1 MQC       0.042033
     41 H19         -8.9230    -8.7440   -11.5880 h1         1 MQC       0.042033
@<TRIPOS>BOND
     1     1     2 2   
     2     1    24 1   
     3     2     3 1   
     4     2     4 1   
     5     3    25 1   
     6     3    26 1   
     7     4     5 ar  
     8     4     7 ar  
     9     5     6 ar  
    10     5    27 1   
    11     6     9 ar  
    12     6    14 ar  
    13     7     8 ar  
    14     7    28 1   
    15     8     9 ar  
    16     8    29 1   
    17     9    10 ar  
    18    10    11 ar  
    19    11    12 1   
    20    11    13 ar  
    21    12    30 1   
    22    12    31 1   
    23    12    32 1   
    24    13    14 ar  
    25    13    33 1   
    26    14    15 1   
    27    15    16 1   
    28    15    34 1   
    29    16    17 ar  
    30    16    18 ar  
    31    17    21 ar  
    32    17    35 1   
    33    18    19 ar  
    34    18    36 1   
    35    19    20 ar  
    36    19    37 1   
    37    20    21 ar  
    38    20    38 1   
    39    21    22 1   
    40    22    23 1   
    41    23    39 1   
    42    23    40 1   
    43    23    41 1   
@<TRIPOS>SUBSTRUCTURE
     1 MQC         1 TEMP              0 ****  ****    0 ROOT
