@<TRIPOS>MOLECULE
MQD
   23    22     1     0     0
SMALL
abcg2


@<TRIPOS>ATOM
      1 C1          -0.1080    -1.5610    -0.8500 c3         1 MQD      -0.081100
      2 C2          -0.0090    -0.0500    -0.6890 c3         1 MQD       0.183000
      3 O2           1.3880     0.2510    -0.6540 oh         1 MQD      -0.657000
      4 CM          -0.6760     0.6670    -1.8630 c3         1 MQD       0.133600
      5 C3          -0.6990     0.4350     0.5970 c3         1 MQD      -0.150400
      6 C4          -0.2080    -0.1880     1.9020 c3         1 MQD       0.185300
      7 O4           1.1590     0.0840     2.1480 oh         1 MQD      -0.674000
      8 C5          -1.0070     0.3370     3.0820 c3         1 MQD      -0.093100
      9 O6          -0.0610     0.3010    -3.0730 oh         1 MQD      -0.644000
     10 H1C1        -1.1500    -1.8810    -0.8120 hc         1 MQD       0.049367
     11 H1C2         0.3080    -1.8830    -1.8040 hc         1 MQD       0.049367
     12 H1C3         0.4290    -2.0870    -0.0600 hc         1 MQD       0.049367
     13 H2           1.4990     1.2090    -0.6840 ho         1 MQD       0.446000
     14 HMC1        -1.7440     0.4140    -1.8540 h1         1 MQD       0.020700
     15 HMC2        -0.6110     1.7530    -1.6950 h1         1 MQD       0.020700
     16 H3C1        -1.7710     0.2380     0.5090 hc         1 MQD       0.050700
     17 H3C2        -0.5970     1.5260     0.6650 hc         1 MQD       0.050700
     18 H4          -0.3730    -1.2750     1.8480 h1         1 MQD       0.030700
     19 HA           1.6210     0.0030     1.3030 ho         1 MQD       0.464000
     20 H5C1        -0.6560    -0.0980     4.0180 hc         1 MQD       0.041033
     21 H5C2        -0.9290     1.4230     3.1590 hc         1 MQD       0.041033
     22 H5C3        -2.0620     0.0820     2.9720 hc         1 MQD       0.041033
     23 H6          -0.6000     0.6380    -3.7930 ho         1 MQD       0.443000
@<TRIPOS>BOND
     1     1     2 1   
     2     1    10 1   
     3     1    11 1   
     4     1    12 1   
     5     2     3 1   
     6     2     4 1   
     7     2     5 1   
     8     3    13 1   
     9     4     9 1   
    10     4    14 1   
    11     4    15 1   
    12     5     6 1   
    13     5    16 1   
    14     5    17 1   
    15     6     7 1   
    16     6     8 1   
    17     6    18 1   
    18     7    19 1   
    19     8    20 1   
    20     8    21 1   
    21     8    22 1   
    22     9    23 1   
@<TRIPOS>SUBSTRUCTURE
     1 MQD         1 TEMP              0 ****  ****    0 ROOT
