@<TRIPOS>MOLECULE
MQD
   23    22     1     0     0
SMALL
No Charge or Current Charge


@<TRIPOS>ATOM
      1 C1          -0.1000    -1.5690    -0.8430 c3         1 MQD      -0.081100
      2 C2          -0.0520    -0.0320    -0.6450 c3         1 MQD       0.183000
      3 O2           1.3220     0.3630    -0.5690 oh         1 MQD      -0.657000
      4 CM          -0.6700     0.7090    -1.8740 c3         1 MQD       0.133600
      5 C3          -0.7730     0.4100     0.6650 c3         1 MQD      -0.150400
      6 C4          -0.2400    -0.1960     1.9880 c3         1 MQD       0.185300
      7 O4           1.1350     0.1460     2.1140 oh         1 MQD      -0.674000
      8 C5          -1.0030     0.3150     3.2250 c3         1 MQD      -0.093100
      9 O6           0.1390     0.5200    -3.0500 oh         1 MQD      -0.644000
     10 H1C1        -1.1370    -1.9240    -0.8610 hc         1 MQD       0.049367
     11 H1C2         0.3730    -1.8620    -1.7870 hc         1 MQD       0.049367
     12 H1C3         0.4270    -2.0930    -0.0380 hc         1 MQD       0.049367
     13 H2           1.5720     0.5210    -1.5090 ho         1 MQD       0.446000
     14 HMC1        -1.6870     0.3330    -2.0470 h1         1 MQD       0.020700
     15 HMC2        -0.7520     1.7810    -1.6480 h1         1 MQD       0.020700
     16 H3C1        -1.8370     0.1560     0.5760 hc         1 MQD       0.050700
     17 H3C2        -0.7300     1.5040     0.7400 hc         1 MQD       0.050700
     18 H4          -0.3530    -1.2870     1.9500 h1         1 MQD       0.030700
     19 HA           1.4280     0.2670     1.1710 ho         1 MQD       0.464000
     20 H5C1        -0.6020    -0.1390     4.1400 hc         1 MQD       0.041033
     21 H5C2        -0.9210     1.4050     3.3160 hc         1 MQD       0.041033
     22 H5C3        -2.0660     0.0550     3.1550 hc         1 MQD       0.041033
     23 H6          -0.3310     0.9540    -3.7970 ho         1 MQD       0.443000
@<TRIPOS>BOND
     1     1     2 1   
     2     1    10 1   
     3     1    11 1   
     4     1    12 1   
     5     2     3 1   
     6     2     4 1   
     7     2     5 1   
     8     3    13 1   
     9     4     9 1   
    10     4    14 1   
    11     4    15 1   
    12     5     6 1   
    13     5    16 1   
    14     5    17 1   
    15     6     7 1   
    16     6     8 1   
    17     6    18 1   
    18     7    19 1   
    19     8    20 1   
    20     8    21 1   
    21     8    22 1   
    22     9    23 1   
@<TRIPOS>SUBSTRUCTURE
     1 MQD         1 TEMP              0 ****  ****    0 ROOT
