@<TRIPOS>MOLECULE
MQE
  164   165     1     0     0
SMALL
bcc


@<TRIPOS>ATOM
      1 CAC          2.0700     0.5280     0.5120 c3         1 MQE      -0.038200
      2 CAD         -2.2620    -0.9980     1.7200 c3         1 MQE      -0.038200
      3 CAE          6.4110    -1.4310     0.0970 c3         1 MQE      -0.038200
      4 CAF         -6.5310    -0.8310    -0.4090 c3         1 MQE      -0.038200
      5 CAG        -10.9700     0.2780     0.8590 c3         1 MQE      -0.038200
      6 CAH         10.7250    -0.1970     1.5630 c3         1 MQE      -0.038200
      7 CAI          2.6370    -0.5610    -0.4110 c3         1 MQE      -0.036200
      8 CAJ         -1.6830     0.4200     1.5880 c3         1 MQE      -0.036200
      9 CAK         -5.9900    -1.6650     0.7640 c3         1 MQE      -0.036200
     10 CAL          7.0380    -1.4770     1.5000 c3         1 MQE      -0.036200
     11 CAM        -10.3090     0.1470    -0.5230 c3         1 MQE      -0.036200
     12 CAN        -15.0910    -1.9360     0.2000 c3         1 MQE      -0.040200
     13 CAO         11.1450     0.8090     0.4780 c3         1 MQE      -0.036200
     14 CAP          0.5720     0.6620     0.4290 c2         1 MQE      -0.111400
     15 CAQ         -3.7640    -1.0240     1.8350 c2         1 MQE      -0.111400
     16 CAR          4.9140    -1.5950     0.0980 c2         1 MQE      -0.111400
     17 CAS        -14.6900    -0.8490     1.2100 c3         1 MQE      -0.036200
     18 CAT         -8.0180    -0.9610    -0.6020 c2         1 MQE      -0.111400
     19 CAU         14.8580     0.4170    -0.6660 c3         1 MQE      -0.038200
     20 CAV          9.2370    -0.2250     1.7900 c2         1 MQE      -0.111400
     21 CAW        -12.4730     0.3330     0.7880 c2         1 MQE      -0.111400
     22 CAX        -19.3200    -0.6510    -1.4420 cc         1 MQE      -0.131400
     23 CAY        -18.7370    -2.0150    -1.1960 c3         1 MQE       0.002000
     24 CAZ         13.3540     0.3360    -0.6960 c2         1 MQE      -0.112400
     25 CBA         15.5380    -0.9510    -0.4930 c3         1 MQE      -0.036200
     26 CBB        -16.5760    -2.1750     0.1470 c2         1 MQE      -0.090400
     27 CBC         -0.1900     0.3890     1.4910 c2         1 MQE      -0.172200
     28 CBD          4.1310    -0.6090    -0.3490 c2         1 MQE      -0.172200
     29 CBE         -4.5010    -1.5670     0.8620 c2         1 MQE      -0.172200
     30 CBF          8.5220    -1.2950     1.4300 c2         1 MQE      -0.172200
     31 CBG         -8.8180     0.0940    -0.4160 c2         1 MQE      -0.171200
     32 CBH        -13.2040    -0.6810     1.2580 c2         1 MQE      -0.172200
     33 CBI         12.6310     0.8420     0.3070 c2         1 MQE      -0.172200
     34 CBJ         19.3620    -0.6840     0.2420 c3         1 MQE      -0.038200
     35 CBK        -19.4070    -0.0840    -2.6620 cd         1 MQE      -0.133400
     36 CBL        -17.2570    -1.8860    -0.9640 c2         1 MQE      -0.183200
     37 CBM         17.8940    -0.9190     0.4790 c2         1 MQE      -0.111400
     38 CBN         17.0280    -0.8240    -0.5340 c2         1 MQE      -0.172200
     39 CBO         19.8720     0.6140     0.8900 c3         1 MQE      -0.036200
     40 CBP        -20.2740     1.4650    -0.3670 ca         1 MQE      -0.133600
     41 CBQ        -19.7310     0.0950    -0.2220 c          1 MQE       0.574900
     42 CBR        -20.3870     2.0420    -1.6310 ca         1 MQE      -0.134600
     43 CBS        -19.9470     1.2910    -2.8280 c          1 MQE       0.571900
     44 CBT          0.0410     1.0990    -0.9060 c3         1 MQE      -0.054900
     45 CBU         -4.3230    -0.4080     3.0840 c3         1 MQE      -0.054900
     46 CBV          4.4120    -2.9080     0.6240 c3         1 MQE      -0.054900
     47 CBW         -8.4960    -2.3280    -0.9960 c3         1 MQE      -0.054900
     48 CBX          8.6540     1.0170     2.3980 c3         1 MQE      -0.054900
     49 CBY        -13.0410     1.5620     0.1400 c3         1 MQE      -0.054900
     50 CBZ         12.7740    -0.3550    -1.8960 c3         1 MQE      -0.054900
     51 CCA        -17.1850    -2.7300     1.4000 c3         1 MQE      -0.055900
     52 CCB         21.3310     0.8290     0.6310 c2         1 MQE      -0.172200
     53 CCC         21.8930     1.7100    -0.2020 c2         1 MQE      -0.111400
     54 CCD         23.3910     1.7600    -0.3600 c3         1 MQE      -0.038200
     55 CCE        -18.9650    -0.7370    -3.9330 c3         1 MQE      -0.055900
     56 CCF         17.5110    -1.2240     1.8970 c3         1 MQE      -0.054900
     57 CCG        -20.6780     2.1760     0.7580 ca         1 MQE      -0.084000
     58 CCH        -20.9090     3.3230    -1.7660 ca         1 MQE      -0.083000
     59 CCI         23.8780     1.2270    -1.7170 c3         1 MQE      -0.035200
     60 CCJ        -21.1960     3.4540     0.6190 ca         1 MQE      -0.116000
     61 CCK        -21.3140     4.0270    -0.6420 ca         1 MQE      -0.117000
     62 CCL         21.1270     2.6940    -1.0360 c3         1 MQE      -0.055900
     63 CCM         25.3630     1.3540    -1.8620 c2         1 MQE      -0.174200
     64 CCN         26.2800     0.3890    -1.7470 c2         1 MQE      -0.111400
     65 CCO         27.7420     0.6860    -1.9090 c3         1 MQE      -0.055900
     66 CCP         25.9700    -1.0490    -1.4540 c3         1 MQE      -0.055900
     67 OAA        -19.6270    -0.4140     0.8750 o          1 MQE      -0.506100
     68 OAB        -20.0220     1.7870    -3.9340 o          1 MQE      -0.509100
     69 H1           2.3680     0.3070     1.5400 hc         1 MQE       0.044700
     70 H2           2.5350     1.4850     0.2480 hc         1 MQE       0.044700
     71 H3          -1.9450    -1.5850     0.8550 hc         1 MQE       0.044700
     72 H4          -1.8200    -1.4750     2.6030 hc         1 MQE       0.044700
     73 H5           6.6810    -0.4830    -0.3750 hc         1 MQE       0.044700
     74 H6           6.8640    -2.2240    -0.5110 hc         1 MQE       0.044700
     75 H7          -6.2650     0.2160    -0.2450 hc         1 MQE       0.044700
     76 H8          -6.0170    -1.1460    -1.3250 hc         1 MQE       0.044700
     77 H9         -10.6560    -0.5670     1.4760 hc         1 MQE       0.045200
     78 H10        -10.5880     1.1830     1.3450 hc         1 MQE       0.045200
     79 H11         11.0780    -1.1890     1.2730 hc         1 MQE       0.045200
     80 H12         11.2360     0.0600     2.4980 hc         1 MQE       0.045200
     81 H13          2.1870    -1.5200    -0.1460 hc         1 MQE       0.045700
     82 H14          2.3330    -0.3510    -1.4420 hc         1 MQE       0.045700
     83 H15         -2.1350     0.9070     0.7210 hc         1 MQE       0.045700
     84 H16         -1.9730     1.0120     2.4610 hc         1 MQE       0.045700
     85 H17         -6.4820    -1.3430     1.6840 hc         1 MQE       0.045700
     86 H18         -6.2670    -2.7140     0.6160 hc         1 MQE       0.045700
     87 H19          6.5640    -0.7180     2.1260 hc         1 MQE       0.045700
     88 H20          6.8160    -2.4440     1.9620 hc         1 MQE       0.045700
     89 H21        -10.7090    -0.7390    -1.0200 hc         1 MQE       0.045700
     90 H22        -10.5920     1.0030    -1.1430 hc         1 MQE       0.045700
     91 H23        -14.7220    -1.6490    -0.7880 hc         1 MQE       0.045700
     92 H24        -14.5820    -2.8690     0.4690 hc         1 MQE       0.045700
     93 H25         10.6360     0.5510    -0.4520 hc         1 MQE       0.045700
     94 H26         10.7960     1.8080     0.7570 hc         1 MQE       0.045700
     95 H28        -15.1970     0.0810     0.9450 hc         1 MQE       0.047700
     96 H29        -15.0510    -1.1280     2.2050 hc         1 MQE       0.047700
     97 H30         15.2170     0.8720    -1.5960 hc         1 MQE       0.045200
     98 H31         15.1800     1.0710     0.1490 hc         1 MQE       0.045200
     99 H33        -19.2360    -2.4780    -0.3470 hc         1 MQE       0.064200
    100 H34        -18.9220    -2.6600    -2.0550 hc         1 MQE       0.064200
    101 H35         15.1940    -1.3990     0.4410 hc         1 MQE       0.045700
    102 H36         15.2150    -1.6210    -1.2960 hc         1 MQE       0.045700
    103 H38          0.3160     0.0680     2.4000 ha         1 MQE       0.115000
    104 H40          4.6230     0.2970    -0.7000 ha         1 MQE       0.114000
    105 H41         -3.9670    -1.9780     0.0060 ha         1 MQE       0.114000
    106 H42          9.0610    -2.1290     0.9850 ha         1 MQE       0.115000
    107 H44         -8.3490     1.0290    -0.1150 ha         1 MQE       0.115000
    108 H45        -12.6670    -1.5210     1.6940 ha         1 MQE       0.114000
    109 H46         13.1750     1.3060     1.1270 ha         1 MQE       0.115000
    110 H47         19.9410    -1.5280     0.6370 hc         1 MQE       0.045200
    111 H48         19.5630    -0.6370    -0.8310 hc         1 MQE       0.045200
    112 H49        -16.7030    -1.4860    -1.8100 ha         1 MQE       0.117000
    113 H51         17.4340    -0.5810    -1.5140 ha         1 MQE       0.114000
    114 H52         19.2730     1.4480     0.5190 hc         1 MQE       0.045200
    115 H53         19.7070     0.5700     1.9710 hc         1 MQE       0.045200
    116 H54          0.1570     0.3110    -1.6550 hc         1 MQE       0.039033
    117 H55         -1.0120     1.3690    -0.8820 hc         1 MQE       0.039033
    118 H56          0.6000     1.9620    -1.2760 hc         1 MQE       0.039033
    119 H57         -4.1380     0.6680     3.1120 hc         1 MQE       0.039033
    120 H58         -5.3950    -0.5560     3.1950 hc         1 MQE       0.039033
    121 H59         -3.8340    -0.8270     3.9670 hc         1 MQE       0.039033
    122 H60          4.5960    -3.0030     1.6960 hc         1 MQE       0.039033
    123 H61          3.3460    -3.0550     0.4640 hc         1 MQE       0.039033
    124 H62          4.9390    -3.7380     0.1470 hc         1 MQE       0.039033
    125 H63         -8.3860    -3.0370    -0.1720 hc         1 MQE       0.039033
    126 H64         -9.5410    -2.3480    -1.3000 hc         1 MQE       0.039033
    127 H65         -7.8990    -2.7190    -1.8230 hc         1 MQE       0.039033
    128 H66          8.6480     1.8460     1.6850 hc         1 MQE       0.039033
    129 H67          7.6310     0.8850     2.7450 hc         1 MQE       0.039033
    130 H68          9.2540     1.3460     3.2510 hc         1 MQE       0.039033
    131 H69        -12.8390     1.5750    -0.9330 hc         1 MQE       0.039033
    132 H70        -14.1180     1.6560     0.2670 hc         1 MQE       0.039033
    133 H71        -12.5770     2.4610     0.5530 hc         1 MQE       0.039033
    134 H72         12.9830    -1.4270    -1.8750 hc         1 MQE       0.039033
    135 H73         11.6950    -0.2390    -1.9800 hc         1 MQE       0.039033
    136 H74         13.2240     0.0300    -2.8140 hc         1 MQE       0.039033
    137 H75        -17.2770    -1.9620     2.1710 hc         1 MQE       0.043367
    138 H76        -18.1770    -3.1490     1.2450 hc         1 MQE       0.043367
    139 H77        -16.5510    -3.5170     1.8130 hc         1 MQE       0.043367
    140 H78         21.9960     0.1610     1.1750 ha         1 MQE       0.115000
    141 H81         23.7350     2.7940    -0.2430 hc         1 MQE       0.045200
    142 H82         23.8710     1.1810     0.4330 hc         1 MQE       0.045200
    143 H83        -19.7570    -0.7110    -4.6810 hc         1 MQE       0.055367
    144 H84        -18.1120    -0.2030    -4.3550 hc         1 MQE       0.055367
    145 H85        -18.6690    -1.7720    -3.7930 hc         1 MQE       0.055367
    146 H86         17.6670    -0.3570     2.5430 hc         1 MQE       0.039033
    147 H87         16.4710    -1.5250     2.0080 hc         1 MQE       0.039033
    148 H88         18.1360    -2.0250     2.2990 hc         1 MQE       0.039033
    149 H89        -20.5880     1.7320     1.7400 ha         1 MQE       0.156000
    150 H90        -21.0020     3.7700    -2.7460 ha         1 MQE       0.156000
    151 H91         23.5500     0.1920    -1.8290 hc         1 MQE       0.045200
    152 H92         23.3980     1.7880    -2.5230 hc         1 MQE       0.045200
    153 H93        -21.5080     4.0060     1.4960 ha         1 MQE       0.139000
    154 H94        -21.7210     5.0230    -0.7500 ha         1 MQE       0.139000
    155 H95         21.4490     3.7150    -0.8170 hc         1 MQE       0.039367
    156 H96         21.3100     2.5360    -2.1020 hc         1 MQE       0.039367
    157 H97         20.0510     2.6440    -0.8830 hc         1 MQE       0.039367
    158 H98         25.7200     2.3630    -2.0580 ha         1 MQE       0.114000
    159 H101        28.2980     0.4300    -1.0030 hc         1 MQE       0.038700
    160 H102        28.1750     0.0870    -2.7150 hc         1 MQE       0.038700
    161 H103        27.9270     1.7370    -2.1350 hc         1 MQE       0.038700
    162 H104        24.9130    -1.2390    -1.2770 hc         1 MQE       0.038700
    163 H105        26.2940    -1.6900    -2.2780 hc         1 MQE       0.038700
    164 H106        26.5200    -1.3830    -0.5710 hc         1 MQE       0.038700
@<TRIPOS>BOND
     1     1     7 1   
     2     1    14 1   
     3     1    69 1   
     4     1    70 1   
     5     2     8 1   
     6     2    15 1   
     7     2    71 1   
     8     2    72 1   
     9     3    10 1   
    10     3    16 1   
    11     3    73 1   
    12     3    74 1   
    13     4     9 1   
    14     4    18 1   
    15     4    75 1   
    16     4    76 1   
    17     5    11 1   
    18     5    21 1   
    19     5    77 1   
    20     5    78 1   
    21     6    13 1   
    22     6    20 1   
    23     6    79 1   
    24     6    80 1   
    25     7    28 1   
    26     7    81 1   
    27     7    82 1   
    28     8    27 1   
    29     8    83 1   
    30     8    84 1   
    31     9    29 1   
    32     9    85 1   
    33     9    86 1   
    34    10    30 1   
    35    10    87 1   
    36    10    88 1   
    37    11    31 1   
    38    11    89 1   
    39    11    90 1   
    40    12    17 1   
    41    12    26 1   
    42    12    91 1   
    43    12    92 1   
    44    13    33 1   
    45    13    93 1   
    46    13    94 1   
    47    14    27 2   
    48    14    44 1   
    49    15    29 2   
    50    15    45 1   
    51    16    28 2   
    52    16    46 1   
    53    17    32 1   
    54    17    95 1   
    55    17    96 1   
    56    18    31 2   
    57    18    47 1   
    58    19    24 1   
    59    19    25 1   
    60    19    97 1   
    61    19    98 1   
    62    20    30 2   
    63    20    48 1   
    64    21    32 2   
    65    21    49 1   
    66    22    23 1   
    67    22    35 2   
    68    22    41 1   
    69    23    36 1   
    70    23    99 1   
    71    23   100 1   
    72    24    33 2   
    73    24    50 1   
    74    25    38 1   
    75    25   101 1   
    76    25   102 1   
    77    26    36 2   
    78    26    51 1   
    79    27   103 1   
    80    28   104 1   
    81    29   105 1   
    82    30   106 1   
    83    31   107 1   
    84    32   108 1   
    85    33   109 1   
    86    34    37 1   
    87    34    39 1   
    88    34   110 1   
    89    34   111 1   
    90    35    43 1   
    91    35    55 1   
    92    36   112 1   
    93    37    38 2   
    94    37    56 1   
    95    38   113 1   
    96    39    52 1   
    97    39   114 1   
    98    39   115 1   
    99    40    41 1   
   100    40    42 ar  
   101    40    57 ar  
   102    41    67 2   
   103    42    43 1   
   104    42    58 ar  
   105    43    68 2   
   106    44   116 1   
   107    44   117 1   
   108    44   118 1   
   109    45   119 1   
   110    45   120 1   
   111    45   121 1   
   112    46   122 1   
   113    46   123 1   
   114    46   124 1   
   115    47   125 1   
   116    47   126 1   
   117    47   127 1   
   118    48   128 1   
   119    48   129 1   
   120    48   130 1   
   121    49   131 1   
   122    49   132 1   
   123    49   133 1   
   124    50   134 1   
   125    50   135 1   
   126    50   136 1   
   127    51   137 1   
   128    51   138 1   
   129    51   139 1   
   130    52    53 2   
   131    52   140 1   
   132    53    54 1   
   133    53    62 1   
   134    54    59 1   
   135    54   141 1   
   136    54   142 1   
   137    55   143 1   
   138    55   144 1   
   139    55   145 1   
   140    56   146 1   
   141    56   147 1   
   142    56   148 1   
   143    57    60 ar  
   144    57   149 1   
   145    58    61 ar  
   146    58   150 1   
   147    59    63 1   
   148    59   151 1   
   149    59   152 1   
   150    60    61 ar  
   151    60   153 1   
   152    61   154 1   
   153    62   155 1   
   154    62   156 1   
   155    62   157 1   
   156    63    64 2   
   157    63   158 1   
   158    64    65 1   
   159    64    66 1   
   160    65   159 1   
   161    65   160 1   
   162    65   161 1   
   163    66   162 1   
   164    66   163 1   
   165    66   164 1   
@<TRIPOS>SUBSTRUCTURE
     1 MQE         1 TEMP              0 ****  ****    0 ROOT
