@<TRIPOS>MOLECULE
MQE
  164   165     1     0     0
SMALL
No Charge or Current Charge


@<TRIPOS>ATOM
      1 CAC          1.9340     0.2860    -0.3140 c3         1 MQE      -0.038200
      2 CAD         -2.1960    -1.1740     1.5070 c3         1 MQE      -0.038200
      3 CAE          6.4710    -1.8010    -0.3690 c3         1 MQE      -0.038200
      4 CAF         -6.6770    -1.6790    -0.6600 c3         1 MQE      -0.038200
      5 CAG        -11.0540    -0.2910     0.5690 c3         1 MQE      -0.038200
      6 CAH         10.7250     0.0300     0.6600 c3         1 MQE      -0.038200
      7 CAI          2.5740    -1.0980    -0.5650 c3         1 MQE      -0.036200
      8 CAJ         -1.6600     0.2660     1.3550 c3         1 MQE      -0.036200
      9 CAK         -6.0380    -1.7750     0.7440 c3         1 MQE      -0.036200
     10 CAL          7.1480    -1.6360     1.0090 c3         1 MQE      -0.036200
     11 CAM        -10.4430    -0.4630    -0.8380 c3         1 MQE      -0.036200
     12 CAN        -15.3870    -2.0160    -0.3040 c3         1 MQE      -0.040200
     13 CAO         11.2280     0.2860    -0.7770 c3         1 MQE      -0.036200
     14 CAP          0.4200     0.2230    -0.1570 c2         1 MQE      -0.111400
     15 CAQ         -3.7070    -1.2400     1.6880 c2         1 MQE      -0.111400
     16 CAR          4.9640    -2.0070    -0.2790 c2         1 MQE      -0.111400
     17 CAS        -14.7860    -1.5360     1.0350 c3         1 MQE      -0.036200
     18 CAT         -8.1990    -1.7010    -0.6310 c2         1 MQE      -0.111400
     19 CAU         15.0820    -0.5540    -1.1480 c3         1 MQE      -0.038200
     20 CAV          9.2130    -0.1250     0.7470 c2         1 MQE      -0.111400
     21 CAW        -12.5760    -0.3050     0.5660 c2         1 MQE      -0.111400
     22 CAX        -19.6080     0.4240    -0.9600 cc         1 MQE      -0.131400
     23 CAY        -19.1610    -1.0280    -1.0210 c3         1 MQE       0.002000
     24 CAZ         13.5740    -0.7350    -1.0430 c2         1 MQE      -0.112400
     25 CBA         15.8350    -0.9540     0.1410 c3         1 MQE      -0.036200
     26 CBB        -16.9090    -2.0630    -0.2960 c2         1 MQE      -0.090400
     27 CBC         -0.1730     0.2910     1.0500 c2         1 MQE      -0.222200
     28 CBD          4.0930    -1.0390    -0.6210 c2         1 MQE      -0.222200
     29 CBE         -4.5220    -1.6720     0.7060 c2         1 MQE      -0.222200
     30 CBF          8.6300    -1.3320     0.8820 c2         1 MQE      -0.222200
     31 CBG         -8.9300    -0.5820    -0.7980 c2         1 MQE      -0.221200
     32 CBH        -13.2770    -1.3860     0.9600 c2         1 MQE      -0.222200
     33 CBI         12.7430     0.3100    -0.8600 c2         1 MQE      -0.222200
     34 CBJ         19.6330    -0.0530     0.8330 c3         1 MQE      -0.038200
     35 CBK        -19.8430     1.2100    -2.0880 cd         1 MQE      -0.133400
     36 CBL        -17.6470    -1.1450    -0.9510 c2         1 MQE      -0.233200
     37 CBM         18.1580    -0.3480     1.0700 c2         1 MQE      -0.111400
     38 CBN         17.3260    -0.6650     0.0590 c2         1 MQE      -0.222200
     39 CBO         19.9790     1.4470     0.9450 c3         1 MQE      -0.036200
     40 CBP        -20.2440     2.3940     0.5570 ca         1 MQE      -0.133600
     41 CBQ        -19.7780     0.9630     0.4270 c          1 MQE       0.574900
     42 CBR        -20.5050     3.1870    -0.5860 ca         1 MQE      -0.134600
     43 CBS        -20.3200     2.6250    -1.9710 c          1 MQE       0.571900
     44 CBT         -0.3130     0.0900    -1.4870 c3         1 MQE      -0.054900
     45 CBU         -4.1640    -0.8010     3.0740 c3         1 MQE      -0.054900
     46 CBV          4.5800    -3.4020     0.2000 c3         1 MQE      -0.054900
     47 CBW         -8.7720    -3.0980    -0.4240 c3         1 MQE      -0.054900
     48 CBX          8.4710     1.2040     0.6770 c3         1 MQE      -0.054900
     49 CBY        -13.1860     1.0090     0.0910 c3         1 MQE      -0.054900
     50 CBZ         13.1350    -2.1870    -1.1860 c3         1 MQE      -0.054900
     51 CCA        -17.4620    -3.2420     0.4970 c3         1 MQE      -0.055900
     52 CCB         21.4290     1.7280     0.5920 c2         1 MQE      -0.222200
     53 CCC         21.9460     1.9680    -0.6280 c2         1 MQE      -0.111400
     54 CCD         23.4240     2.2750    -0.8280 c3         1 MQE      -0.038200
     55 CCE        -19.6480     0.7000    -3.5110 c3         1 MQE      -0.055900
     56 CCF         17.7610    -0.2640     2.5390 c3         1 MQE      -0.054900
     57 CCG        -20.4250     2.9560     1.8430 ca         1 MQE      -0.066000
     58 CCH        -20.9430     4.5220    -0.4200 ca         1 MQE      -0.065000
     59 CCI         24.2290     1.0690    -1.3570 c3         1 MQE      -0.035200
     60 CCJ        -20.8600     4.2820     1.9940 ca         1 MQE      -0.098000
     61 CCK        -21.1190     5.0650     0.8610 ca         1 MQE      -0.099000
     62 CCL         21.1520     1.9820    -1.9290 c3         1 MQE      -0.055900
     63 CCM         25.7150     1.3680    -1.4550 c2         1 MQE      -0.224200
     64 CCN         26.6470     1.2170    -0.4940 c2         1 MQE      -0.111400
     65 CCO         28.1140     1.5280    -0.7300 c3         1 MQE      -0.055900
     66 CCP         26.3800     0.7340     0.9240 c3         1 MQE      -0.055900
     67 OAA        -19.5590     0.2930     1.4320 o          1 MQE      -0.506100
     68 OAB        -20.5610     3.3180    -2.9550 o          1 MQE      -0.509100
     69 H1           2.3830     0.7050     0.5950 hc         1 MQE       0.044700
     70 H2           2.2050     0.9720    -1.1270 hc         1 MQE       0.044700
     71 H3          -1.9040    -1.7390     0.6130 hc         1 MQE       0.044700
     72 H4          -1.6880    -1.6650     2.3460 hc         1 MQE       0.044700
     73 H5           6.6890    -0.9050    -0.9620 hc         1 MQE       0.044700
     74 H6           6.9400    -2.6340    -0.9070 hc         1 MQE       0.044700
     75 H7          -6.3280    -0.7480    -1.1240 hc         1 MQE       0.044700
     76 H8          -6.2960    -2.4900    -1.2940 hc         1 MQE       0.044700
     77 H9         -10.6780    -1.1040     1.2020 hc         1 MQE       0.045200
     78 H10        -10.6780     0.6360     1.0210 hc         1 MQE       0.045200
     79 H11         11.2130    -0.8800     1.0310 hc         1 MQE       0.045200
     80 H12         11.0680     0.8400     1.3170 hc         1 MQE       0.045200
     81 H13          2.2380    -1.7750     0.2280 hc         1 MQE       0.045700
     82 H14          2.1940    -1.5040    -1.5090 hc         1 MQE       0.045700
     83 H15         -2.2280     0.7790     0.5700 hc         1 MQE       0.045700
     84 H16         -1.8520     0.8280     2.2760 hc         1 MQE       0.045700
     85 H17         -6.4670    -0.9820     1.3690 hc         1 MQE       0.045700
     86 H18         -6.3230    -2.7290     1.2040 hc         1 MQE       0.045700
     87 H19          6.6330    -0.8470     1.5690 hc         1 MQE       0.045700
     88 H20          7.0140    -2.5530     1.5960 hc         1 MQE       0.045700
     89 H21        -10.8900    -1.3430    -1.3170 hc         1 MQE       0.045700
     90 H22        -10.7240     0.3900    -1.4680 hc         1 MQE       0.045700
     91 H23        -15.0400    -1.3360    -1.0920 hc         1 MQE       0.045700
     92 H24        -14.9730    -3.0000    -0.5580 hc         1 MQE       0.045700
     93 H25         10.8140    -0.4810    -1.4420 hc         1 MQE       0.045700
     94 H26         10.8280     1.2400    -1.1420 hc         1 MQE       0.045700
     95 H28        -15.2590    -0.5900     1.3220 hc         1 MQE       0.047700
     96 H29        -15.0420    -2.2480     1.8280 hc         1 MQE       0.047700
     97 H30         15.4760    -1.1260    -1.9980 hc         1 MQE       0.045200
     98 H31         15.3150     0.4970    -1.3610 hc         1 MQE       0.045200
     99 H33        -19.6500    -1.6010    -0.2260 hc         1 MQE       0.064200
    100 H34        -19.5190    -1.4970    -1.9450 hc         1 MQE       0.064200
    101 H35         15.3770    -0.4190     0.9810 hc         1 MQE       0.045700
    102 H36         15.6850    -2.0240     0.3270 hc         1 MQE       0.045700
    103 H38          0.4440     0.3850     1.9460 ha         1 MQE       0.165000
    104 H40          4.4770    -0.0780    -0.9690 ha         1 MQE       0.164000
    105 H41         -4.0880    -1.9790    -0.2470 ha         1 MQE       0.164000
    106 H42          9.2540    -2.2270     0.9220 ha         1 MQE       0.165000
    107 H44         -8.4230     0.3740    -0.9420 ha         1 MQE       0.165000
    108 H45        -12.7430    -2.2820     1.2820 ha         1 MQE       0.164000
    109 H46         13.1590     1.3160    -0.7700 ha         1 MQE       0.165000
    110 H47         20.2560    -0.6250     1.5320 hc         1 MQE       0.045200
    111 H48         19.9230    -0.3930    -0.1690 hc         1 MQE       0.045200
    112 H49        -17.1370    -0.3500    -1.4970 ha         1 MQE       0.167000
    113 H51         17.7210    -0.7110    -0.9580 ha         1 MQE       0.164000
    114 H52         19.3030     2.0200     0.3000 hc         1 MQE       0.045200
    115 H53         19.7790     1.7940     1.9660 hc         1 MQE       0.045200
    116 H54         -0.0050    -0.8150    -2.0240 hc         1 MQE       0.039033
    117 H55         -1.4000     0.0290    -1.3710 hc         1 MQE       0.039033
    118 H56         -0.1040     0.9480    -2.1370 hc         1 MQE       0.039033
    119 H57         -3.9950     0.2710     3.2270 hc         1 MQE       0.039033
    120 H58         -5.2280    -0.9910     3.2490 hc         1 MQE       0.039033
    121 H59         -3.6160    -1.3390     3.8560 hc         1 MQE       0.039033
    122 H60          4.8510    -3.5500     1.2520 hc         1 MQE       0.039033
    123 H61          3.5080    -3.6030     0.1090 hc         1 MQE       0.039033
    124 H62          5.0940    -4.1740    -0.3860 hc         1 MQE       0.039033
    125 H63         -8.4300    -3.5330     0.5230 hc         1 MQE       0.039033
    126 H64         -9.8660    -3.1110    -0.3950 hc         1 MQE       0.039033
    127 H65         -8.4610    -3.7730    -1.2300 hc         1 MQE       0.039033
    128 H66          8.6850     1.7310    -0.2590 hc         1 MQE       0.039033
    129 H67          7.3830     1.0890     0.7290 hc         1 MQE       0.039033
    130 H68          8.7660     1.8620     1.5030 hc         1 MQE       0.039033
    131 H69        -12.8630     1.2520    -0.9270 hc         1 MQE       0.039033
    132 H70        -14.2800     0.9910     0.0770 hc         1 MQE       0.039033
    133 H71        -12.8840     1.8380     0.7420 hc         1 MQE       0.039033
    134 H72         13.5870    -2.8180    -0.4120 hc         1 MQE       0.039033
    135 H73         12.0510    -2.3160    -1.1000 hc         1 MQE       0.039033
    136 H74         13.4330    -2.5930    -2.1600 hc         1 MQE       0.039033
    137 H75        -17.2800    -3.1180     1.5700 hc         1 MQE       0.043367
    138 H76        -18.5390    -3.3810     0.3640 hc         1 MQE       0.043367
    139 H77        -16.9880    -4.1810     0.1860 hc         1 MQE       0.043367
    140 H78         22.0850     1.7410     1.4640 ha         1 MQE       0.165000
    141 H81         23.5510     3.1270    -1.5080 hc         1 MQE       0.045200
    142 H82         23.8690     2.5860     0.1250 hc         1 MQE       0.045200
    143 H83        -20.5440     0.1770    -3.8640 hc         1 MQE       0.055367
    144 H84        -19.4270     1.5010    -4.2250 hc         1 MQE       0.055367
    145 H85        -18.8060     0.0010    -3.5790 hc         1 MQE       0.055367
    146 H86         17.8100     0.7680     2.9050 hc         1 MQE       0.039033
    147 H87         16.7450    -0.6270     2.7270 hc         1 MQE       0.039033
    148 H88         18.4300    -0.8690     3.1620 hc         1 MQE       0.039033
    149 H89        -20.2300     2.3650     2.7370 ha         1 MQE       0.138000
    150 H90        -21.1490     5.1480    -1.2870 ha         1 MQE       0.138000
    151 H91         24.0490     0.2050    -0.7050 hc         1 MQE       0.045200
    152 H92         23.8510     0.7780    -2.3440 hc         1 MQE       0.045200
    153 H93        -20.9950     4.7010     2.9890 ha         1 MQE       0.121000
    154 H94        -21.4560     6.0940     0.9760 ha         1 MQE       0.121000
    155 H95         21.2020     2.9670    -2.4070 hc         1 MQE       0.039367
    156 H96         21.5430     1.2470    -2.6420 hc         1 MQE       0.039367
    157 H97         20.0930     1.7460    -1.7850 hc         1 MQE       0.039367
    158 H98         26.0140     1.7280    -2.4410 ha         1 MQE       0.164000
    159 H101        28.4650     2.3140    -0.0510 hc         1 MQE       0.038700
    160 H102        28.7360     0.6400    -0.5650 hc         1 MQE       0.038700
    161 H103        28.2980     1.8730    -1.7540 hc         1 MQE       0.038700
    162 H104        25.3170     0.5630     1.1240 hc         1 MQE       0.038700
    163 H105        26.9060    -0.2080     1.1220 hc         1 MQE       0.038700
    164 H106        26.7280     1.4690     1.6590 hc         1 MQE       0.038700
@<TRIPOS>BOND
     1     1     7 1   
     2     1    14 1   
     3     1    69 1   
     4     1    70 1   
     5     2     8 1   
     6     2    15 1   
     7     2    71 1   
     8     2    72 1   
     9     3    10 1   
    10     3    16 1   
    11     3    73 1   
    12     3    74 1   
    13     4     9 1   
    14     4    18 1   
    15     4    75 1   
    16     4    76 1   
    17     5    11 1   
    18     5    21 1   
    19     5    77 1   
    20     5    78 1   
    21     6    13 1   
    22     6    20 1   
    23     6    79 1   
    24     6    80 1   
    25     7    28 1   
    26     7    81 1   
    27     7    82 1   
    28     8    27 1   
    29     8    83 1   
    30     8    84 1   
    31     9    29 1   
    32     9    85 1   
    33     9    86 1   
    34    10    30 1   
    35    10    87 1   
    36    10    88 1   
    37    11    31 1   
    38    11    89 1   
    39    11    90 1   
    40    12    17 1   
    41    12    26 1   
    42    12    91 1   
    43    12    92 1   
    44    13    33 1   
    45    13    93 1   
    46    13    94 1   
    47    14    27 2   
    48    14    44 1   
    49    15    29 2   
    50    15    45 1   
    51    16    28 2   
    52    16    46 1   
    53    17    32 1   
    54    17    95 1   
    55    17    96 1   
    56    18    31 2   
    57    18    47 1   
    58    19    24 1   
    59    19    25 1   
    60    19    97 1   
    61    19    98 1   
    62    20    30 2   
    63    20    48 1   
    64    21    32 2   
    65    21    49 1   
    66    22    23 1   
    67    22    35 2   
    68    22    41 1   
    69    23    36 1   
    70    23    99 1   
    71    23   100 1   
    72    24    33 2   
    73    24    50 1   
    74    25    38 1   
    75    25   101 1   
    76    25   102 1   
    77    26    36 2   
    78    26    51 1   
    79    27   103 1   
    80    28   104 1   
    81    29   105 1   
    82    30   106 1   
    83    31   107 1   
    84    32   108 1   
    85    33   109 1   
    86    34    37 1   
    87    34    39 1   
    88    34   110 1   
    89    34   111 1   
    90    35    43 1   
    91    35    55 1   
    92    36   112 1   
    93    37    38 2   
    94    37    56 1   
    95    38   113 1   
    96    39    52 1   
    97    39   114 1   
    98    39   115 1   
    99    40    41 1   
   100    40    42 ar  
   101    40    57 ar  
   102    41    67 2   
   103    42    43 1   
   104    42    58 ar  
   105    43    68 2   
   106    44   116 1   
   107    44   117 1   
   108    44   118 1   
   109    45   119 1   
   110    45   120 1   
   111    45   121 1   
   112    46   122 1   
   113    46   123 1   
   114    46   124 1   
   115    47   125 1   
   116    47   126 1   
   117    47   127 1   
   118    48   128 1   
   119    48   129 1   
   120    48   130 1   
   121    49   131 1   
   122    49   132 1   
   123    49   133 1   
   124    50   134 1   
   125    50   135 1   
   126    50   136 1   
   127    51   137 1   
   128    51   138 1   
   129    51   139 1   
   130    52    53 2   
   131    52   140 1   
   132    53    54 1   
   133    53    62 1   
   134    54    59 1   
   135    54   141 1   
   136    54   142 1   
   137    55   143 1   
   138    55   144 1   
   139    55   145 1   
   140    56   146 1   
   141    56   147 1   
   142    56   148 1   
   143    57    60 ar  
   144    57   149 1   
   145    58    61 ar  
   146    58   150 1   
   147    59    63 1   
   148    59   151 1   
   149    59   152 1   
   150    60    61 ar  
   151    60   153 1   
   152    61   154 1   
   153    62   155 1   
   154    62   156 1   
   155    62   157 1   
   156    63    64 2   
   157    63   158 1   
   158    64    65 1   
   159    64    66 1   
   160    65   159 1   
   161    65   160 1   
   162    65   161 1   
   163    66   162 1   
   164    66   163 1   
   165    66   164 1   
@<TRIPOS>SUBSTRUCTURE
     1 MQE         1 TEMP              0 ****  ****    0 ROOT
