@<TRIPOS>MOLECULE
MQG
   31    31     1     0     0
SMALL
No Charge or Current Charge


@<TRIPOS>ATOM
      1 C2           0.4780    -0.1970     0.4290 c6         1 MQG       0.241500
      2 C3          -0.3790     0.9610     1.0390 c6         1 MQG       0.148300
      3 C4          -1.6930     1.1780     0.2320 c6         1 MQG       0.090300
      4 C5          -2.4800    -0.1720     0.1810 c6         1 MQG       0.164300
      5 C6          -3.7880    -0.0850    -0.6780 c3         1 MQG       0.165600
      6 C8           3.3240     1.0100    -0.3670 c3         1 MQG      -0.473100
      7 O1           0.1390    -2.5730    -0.3010 oh         1 MQG      -0.588000
      8 C1          -0.4480    -1.4770     0.3730 c6         1 MQG       0.379300
      9 O3           0.3580     2.1950     1.1070 oh         1 MQG      -0.633000
     10 O71          4.2160    -0.6830     1.5590 o          1 MQG      -0.835500
     11 O72          3.1340    -1.7360    -0.4540 o          1 MQG      -0.835500
     12 N2           1.7410    -0.3410     1.2240 n7         1 MQG      -0.955500
     13 O4          -2.4650     2.2420     0.8380 oh         1 MQG      -0.734000
     14 O5          -1.6330    -1.2050    -0.3850 os         1 MQG      -0.492000
     15 O6          -4.4880    -1.3400    -0.7860 oh         1 MQG      -0.704000
     16 H1           0.7100     0.0830    -0.6100 h1         1 MQG       0.111700
     17 H2          -0.6620     0.6630     2.0590 h1         1 MQG       0.025700
     18 H3          -1.4210     1.4530    -0.7990 h1         1 MQG       0.058700
     19 H4          -2.7620    -0.4690     1.2020 h1         1 MQG       0.047700
     20 H5          -4.4490     0.6670    -0.2280 h1         1 MQG       0.018200
     21 H6          -3.5160     0.2770    -1.6790 h1         1 MQG       0.018200
     22 H7           4.3470     1.1170    -0.7420 hc         1 MQG       0.034033
     23 H8           2.6370     1.0620    -1.2170 hc         1 MQG       0.034033
     24 H9           3.1170     1.8360     0.3220 hc         1 MQG       0.034033
     25 H10         -0.5940    -2.9150    -0.8500 ho         1 MQG       0.433000
     26 H11         -0.7300    -1.7830     1.3910 h2         1 MQG       0.001700
     27 H12         -0.3330     2.8840     1.2310 ho         1 MQG       0.435000
     28 H14          1.9690     0.5940     1.5560 hn         1 MQG       0.426000
     29 H15         -3.0880     2.5880     0.1560 ho         1 MQG       0.496000
     30 H16         -5.2410    -1.1950    -1.4040 ho         1 MQG       0.491000
     31 P7           3.1840    -0.5920     0.4930 p5         1 MQG       1.396300
@<TRIPOS>BOND
     1     1     2 1   
     2     1     8 1   
     3     1    12 1   
     4     1    16 1   
     5     2     3 1   
     6     2     9 1   
     7     2    17 1   
     8     3     4 1   
     9     3    13 1   
    10     3    18 1   
    11     4     5 1   
    12     4    14 1   
    13     4    19 1   
    14     5    15 1   
    15     5    20 1   
    16     5    21 1   
    17     6    22 1   
    18     6    23 1   
    19     6    24 1   
    20     6    31 1   
    21     7     8 1   
    22     7    25 1   
    23     8    14 1   
    24     8    26 1   
    25     9    27 1   
    26    10    31 1   
    27    11    31 1   
    28    12    28 1   
    29    12    31 1   
    30    13    29 1   
    31    15    30 1   
@<TRIPOS>SUBSTRUCTURE
     1 MQG         1 TEMP              0 ****  ****    0 ROOT
