@<TRIPOS>MOLECULE
MQG
   31    31     1     0     0
SMALL
bcc


@<TRIPOS>ATOM
      1 C2           0.3590    -0.2570     0.1410 c6         1 MQG       0.241500
      2 C3          -0.3840     1.0060     0.5800 c6         1 MQG       0.125100
      3 C4          -1.7560     1.1160    -0.0760 c6         1 MQG       0.067100
      4 C5          -2.5410    -0.1780     0.1450 c6         1 MQG       0.141100
      5 C6          -3.8850    -0.1580    -0.5490 c3         1 MQG       0.142400
      6 C8           3.7060     1.3070     0.3550 c3         1 MQG      -0.315300
      7 O1           0.0270    -2.5750    -0.2420 oh         1 MQG      -0.525800
      8 C1          -0.5730    -1.4630     0.3050 c6         1 MQG       0.332900
      9 O3           0.4120     2.1250     0.2810 oh         1 MQG      -0.570800
     10 O71          4.0300    -1.2760     1.0680 o          1 MQG      -0.835500
     11 O72          3.0020    -0.7450    -1.2830 o          1 MQG      -0.835500
     12 N2           1.5800    -0.4600     0.8680 n7         1 MQG      -0.900300
     13 O4          -2.4000     2.2350     0.4990 oh         1 MQG      -0.611800
     14 O5          -1.7930    -1.2530    -0.3740 os         1 MQG      -0.445600
     15 O6          -4.5800    -1.3430    -0.2430 oh         1 MQG      -0.581800
     16 H1           0.5990    -0.1730    -0.9240 h1         1 MQG       0.111700
     17 H2          -0.5520     0.9330     1.6710 h1         1 MQG       0.025700
     18 H3          -1.6150     1.2580    -1.1580 h1         1 MQG       0.058700
     19 H4          -2.7010    -0.3110     1.2290 h1         1 MQG       0.047700
     20 H5          -4.4360     0.7270    -0.2110 h1         1 MQG       0.018200
     21 H6          -3.7250    -0.0450    -1.6310 h1         1 MQG       0.018200
     22 H7           4.7220     1.4120    -0.0310 hc         1 MQG       0.034033
     23 H8           3.0590     1.9900    -0.1920 hc         1 MQG       0.034033
     24 H9           3.7160     1.6200     1.4000 hc         1 MQG       0.034033
     25 H10         -0.4210    -3.3630     0.0810 ho         1 MQG       0.394000
     26 H11         -0.7890    -1.6050     1.3800 h2         1 MQG       0.001700
     27 H12         -0.0720     2.9080     0.5620 ho         1 MQG       0.396000
     28 H14          1.5150    -0.2640     1.8570 hn         1 MQG       0.370800
     29 H15         -3.0190     2.6060    -0.1360 ho         1 MQG       0.397000
     30 H16         -5.4410    -1.3000    -0.6680 ho         1 MQG       0.392000
     31 P7           3.1400    -0.4270     0.1870 p5         1 MQG       1.238500
@<TRIPOS>BOND
     1     1     2 1   
     2     1     8 1   
     3     1    12 1   
     4     1    16 1   
     5     2     3 1   
     6     2     9 1   
     7     2    17 1   
     8     3     4 1   
     9     3    13 1   
    10     3    18 1   
    11     4     5 1   
    12     4    14 1   
    13     4    19 1   
    14     5    15 1   
    15     5    20 1   
    16     5    21 1   
    17     6    22 1   
    18     6    23 1   
    19     6    24 1   
    20     6    31 1   
    21     7     8 1   
    22     7    25 1   
    23     8    14 1   
    24     8    26 1   
    25     9    27 1   
    26    10    31 1   
    27    11    31 1   
    28    12    28 1   
    29    12    31 1   
    30    13    29 1   
    31    15    30 1   
@<TRIPOS>SUBSTRUCTURE
     1 MQG         1 TEMP              0 ****  ****    0 ROOT
