@<TRIPOS>MOLECULE
MQH
  120   123     1     0     0
SMALL
bcc


@<TRIPOS>ATOM
      1 C15        -13.7360    -7.4550   -25.3950 c3         1 MQH      -0.025400
      2 C17        -13.8010    -5.2330   -24.2000 ca         1 MQH      -0.119000
      3 C20        -11.3340    -5.6800   -23.0290 ca         1 MQH      -0.133000
      4 C21        -11.8840    -6.6290   -23.8770 ca         1 MQH      -0.119000
      5 C22        -14.0380    -8.7390   -24.6240 c3         1 MQH      -0.083100
      6 C26        -14.5380    -9.0250   -30.7640 c3         1 MQH      -0.147400
      7 C02        -16.0080    -5.5020   -29.9310 c          1 MQH       0.647100
      8 C04        -13.9450    -4.5450   -30.8540 c3         1 MQH       0.026400
      9 C05        -13.5110    -3.8710   -32.1870 c3         1 MQH      -0.048000
     10 C06        -11.9970    -3.6760   -32.1900 c3         1 MQH      -0.093433
     11 C07        -14.1660    -2.5060   -32.4210 c3         1 MQH      -0.093433
     12 C08        -13.8730    -4.8110   -33.3450 c3         1 MQH      -0.093433
     13 C09        -13.6020    -3.7830   -29.5570 c2         1 MQH       0.661200
     14 C11        -11.6030    -4.9810   -28.9840 c3         1 MQH       0.090500
     15 C12        -11.8680    -6.3680   -28.4060 c          1 MQH       0.654100
     16 C14        -12.8160    -7.6880   -26.6090 c3         1 MQH       0.042700
     17 C16        -13.1250    -6.4160   -24.4780 ca         1 MQH      -0.087300
     18 C18        -13.2530    -4.2790   -23.3510 ca         1 MQH      -0.133000
     19 C19        -12.0160    -4.4980   -22.7640 ca         1 MQH      -0.131000
     20 C23        -13.3130    -8.8470   -27.4790 c          1 MQH       0.679100
     21 C25        -14.8530    -9.4180   -29.3180 c3         1 MQH       0.092400
     22 C27        -13.0670    -9.1330   -31.0750 c          1 MQH       0.645100
     23 C29        -11.2730    -8.0970   -32.2000 c3         1 MQH       0.128700
     24 C31        -16.3430    -9.4460   -29.1000 cc         1 MQH       0.397700
     25 C33        -18.4820    -9.7840   -29.4540 cd         1 MQH       0.325200
     26 C34        -18.5790    -9.2840   -28.1960 cc         1 MQH      -0.221400
     27 C38        -10.2670    -4.4160   -28.3890 c3         1 MQH      -0.026000
     28 C39        -10.0120    -3.0390   -29.0050 c3         1 MQH      -0.085433
     29 C40         -9.0810    -5.3120   -28.7540 c3         1 MQH      -0.085433
     30 C41        -10.3470    -4.2760   -26.8680 c3         1 MQH      -0.085433
     31 C42        -17.5410    -5.4800   -29.9210 c3         1 MQH       0.031700
     32 C43        -18.2430    -5.4970   -31.2820 c3         1 MQH      -0.064700
     33 C44        -17.7940    -6.7010   -32.1040 c3         1 MQH      -0.093600
     34 C45        -19.7540    -5.5250   -31.0840 c3         1 MQH      -0.093600
     35 C47        -18.2290    -4.3410   -27.8250 c          1 MQH       0.676100
     36 C48        -18.1650    -2.9860   -27.1070 c5         1 MQH       0.025700
     37 C49        -19.3510    -2.0410   -27.3920 c5         1 MQH      -0.065700
     38 C50        -20.6760    -2.7200   -27.6810 c3         1 MQH      -0.087100
     39 C51        -18.8370    -1.1420   -28.5150 c5         1 MQH      -0.099400
     40 C52        -17.3600    -0.9600   -28.1920 c5         1 MQH       0.105000
     41 C54        -15.7730    -2.7230   -27.3120 c          1 MQH       0.631100
     42 C55        -14.5950    -2.0820   -28.0340 c3         1 MQH       0.153800
     43 N03        -15.3770    -4.8010   -30.8830 ns         1 MQH      -0.578900
     44 N10        -12.6590    -4.0360   -28.7380 n2         1 MQH      -0.699900
     45 N13        -12.6890    -6.4520   -27.3480 ns         1 MQH      -0.555900
     46 N24        -14.2520    -8.5090   -28.3790 ns         1 MQH      -0.586900
     47 N32        -17.2140    -9.8690   -29.9550 nd         1 MQH      -0.662000
     48 N46        -17.8840    -4.3140   -29.1310 ns         1 MQH      -0.570900
     49 N53        -17.0050    -2.2210   -27.5370 n          1 MQH      -0.506800
     50 N56        -14.4540    -2.7490   -29.3060 nu         1 MQH      -0.854200
     51 O28        -12.6420    -8.1060   -31.7960 os         1 MQH      -0.436900
     52 O30        -12.3700   -10.0610   -30.7530 o          1 MQH      -0.509000
     53 O36        -12.9130    -9.9840   -27.2930 o          1 MQH      -0.588100
     54 O37        -11.3180    -7.3620   -28.8610 o          1 MQH      -0.614100
     55 O57        -15.6180    -3.7430   -26.6550 o          1 MQH      -0.566100
     56 O58        -18.5880    -5.3470   -27.2410 o          1 MQH      -0.567100
     57 S35        -17.0170    -8.9010   -27.6060 ss         1 MQH      -0.096300
     58 H151       -14.6850    -7.0560   -25.7730 hc         1 MQH       0.072700
     59 H171       -14.7650    -5.0480   -24.6550 ha         1 MQH       0.141500
     60 H201       -10.3690    -5.8630   -22.5730 ha         1 MQH       0.127000
     61 H211       -11.3370    -7.5450   -24.0680 ha         1 MQH       0.141500
     62 H223       -14.6140    -8.5000   -23.7310 hc         1 MQH       0.044033
     63 H222       -14.6270    -9.4410   -25.2140 hc         1 MQH       0.044033
     64 H221       -13.1240    -9.2440   -24.3090 hc         1 MQH       0.044033
     65 H262       -14.9050    -8.0200   -30.9700 hc         1 MQH       0.078700
     66 H261       -15.0680    -9.7000   -31.4410 hc         1 MQH       0.078700
     67 H041       -13.4270    -5.5060   -30.8070 h1         1 MQH       0.096700
     68 H063       -11.6680    -3.0290   -31.3770 hc         1 MQH       0.041589
     69 H061       -11.4630    -4.6260   -32.1110 hc         1 MQH       0.041589
     70 H062       -11.6900    -3.2080   -33.1260 hc         1 MQH       0.041589
     71 H072       -13.8450    -1.7660   -31.6890 hc         1 MQH       0.041589
     72 H073       -13.8790    -2.1360   -33.4060 hc         1 MQH       0.041589
     73 H071       -15.2580    -2.5390   -32.4100 hc         1 MQH       0.041589
     74 H083       -13.4500    -5.8060   -33.1980 hc         1 MQH       0.041589
     75 H081       -14.9490    -4.9230   -33.4850 hc         1 MQH       0.041589
     76 H082       -13.4700    -4.4130   -34.2780 hc         1 MQH       0.041589
     77 H111       -11.4100    -5.1490   -30.0490 h1         1 MQH       0.054700
     78 H141       -11.8330    -8.0050   -26.2460 h1         1 MQH       0.083700
     79 H181       -13.7950    -3.3630   -23.1510 ha         1 MQH       0.127000
     80 H191       -11.5850    -3.7570   -22.1030 ha         1 MQH       0.126000
     81 H251       -14.4590   -10.4180   -29.1210 h1         1 MQH       0.118700
     82 H292       -11.1290    -7.1600   -32.7310 h1         1 MQH       0.048033
     83 H291       -10.6100    -8.1290   -31.3390 h1         1 MQH       0.048033
     84 H293       -11.0500    -8.9300   -32.8670 h1         1 MQH       0.048033
     85 H331       -19.3200   -10.0970   -30.0610 h4         1 MQH       0.035100
     86 H341       -19.4680    -9.1210   -27.6070 h4         1 MQH       0.180000
     87 H392        -9.0860    -2.6190   -28.6080 hc         1 MQH       0.037256
     88 H391        -9.9000    -3.1060   -30.0890 hc         1 MQH       0.037256
     89 H393       -10.8170    -2.3370   -28.7890 hc         1 MQH       0.037256
     90 H401        -8.1510    -4.8230   -28.4560 hc         1 MQH       0.037256
     91 H403        -9.1120    -6.2790   -28.2540 hc         1 MQH       0.037256
     92 H402        -9.0290    -5.4900   -29.8300 hc         1 MQH       0.037256
     93 H412        -9.4670    -3.7480   -26.4980 hc         1 MQH       0.037256
     94 H413       -11.2270    -3.7110   -26.5590 hc         1 MQH       0.037256
     95 H411       -10.3750    -5.2430   -26.3620 hc         1 MQH       0.037256
     96 H421       -17.8550    -6.3660   -29.3660 h1         1 MQH       0.118700
     97 H431       -17.9950    -4.5800   -31.8310 hc         1 MQH       0.030700
     98 H441       -16.7250    -6.6930   -32.3170 hc         1 MQH       0.044200
     99 H442       -18.0230    -7.6320   -31.5820 hc         1 MQH       0.044200
    100 H443       -18.3150    -6.7200   -33.0610 hc         1 MQH       0.044200
    101 H451       -20.1120    -4.6590   -30.5270 hc         1 MQH       0.044200
    102 H452       -20.2650    -5.5310   -32.0470 hc         1 MQH       0.044200
    103 H453       -20.0550    -6.4240   -30.5410 hc         1 MQH       0.044200
    104 H481       -18.1160    -3.2180   -26.0420 h1         1 MQH       0.104700
    105 H491       -19.4660    -1.4240   -26.4960 hc         1 MQH       0.063700
    106 H501       -20.9780    -3.3780   -26.8650 hc         1 MQH       0.046367
    107 H503       -21.4590    -1.9730   -27.8080 hc         1 MQH       0.046367
    108 H502       -20.6360    -3.3110   -28.5980 hc         1 MQH       0.046367
    109 H512       -19.3650    -0.1910   -28.5560 hc         1 MQH       0.056700
    110 H511       -18.9660    -1.6250   -29.4870 hc         1 MQH       0.056700
    111 H521       -16.7650    -0.7820   -29.0870 h1         1 MQH       0.048200
    112 H522       -17.2050    -0.1210   -27.5100 h1         1 MQH       0.048200
    113 H552       -13.6930    -2.2350   -27.4480 h1         1 MQH       0.083700
    114 H551       -14.7170    -1.0100   -28.1900 h1         1 MQH       0.083700
    115 H031       -15.9270    -4.3640   -31.6070 hn         1 MQH       0.319500
    116 H131       -13.1300    -5.6100   -27.0080 hn         1 MQH       0.352500
    117 H241       -14.4890    -7.5270   -28.4990 hn         1 MQH       0.355500
    118 H461       -17.6160    -3.4270   -29.5300 hn         1 MQH       0.300500
    119 H561       -15.2220    -2.6310   -29.9450 hn         1 MQH       0.418800
    120 O01        -15.4010    -6.0540   -29.0250 o          1 MQH      -0.598100
@<TRIPOS>BOND
     1     1     5 1   
     2     1    16 1   
     3     1    17 1   
     4     1    58 1   
     5     2    17 ar  
     6     2    18 ar  
     7     2    59 1   
     8     3     4 ar  
     9     3    19 ar  
    10     3    60 1   
    11     4    17 ar  
    12     4    61 1   
    13     5    62 1   
    14     5    63 1   
    15     5    64 1   
    16     6    21 1   
    17     6    22 1   
    18     6    65 1   
    19     6    66 1   
    20     7    31 1   
    21     7    43 1   
    22     7   120 2   
    23     8     9 1   
    24     8    13 1   
    25     8    43 1   
    26     8    67 1   
    27     9    10 1   
    28     9    11 1   
    29     9    12 1   
    30    10    68 1   
    31    10    69 1   
    32    10    70 1   
    33    11    71 1   
    34    11    72 1   
    35    11    73 1   
    36    12    74 1   
    37    12    75 1   
    38    12    76 1   
    39    13    44 2   
    40    13    50 1   
    41    14    15 1   
    42    14    27 1   
    43    14    44 1   
    44    14    77 1   
    45    15    45 1   
    46    15    54 2   
    47    16    20 1   
    48    16    45 1   
    49    16    78 1   
    50    18    19 ar  
    51    18    79 1   
    52    19    80 1   
    53    20    46 1   
    54    20    53 2   
    55    21    24 1   
    56    21    46 1   
    57    21    81 1   
    58    22    51 1   
    59    22    52 2   
    60    23    51 1   
    61    23    82 1   
    62    23    83 1   
    63    23    84 1   
    64    24    47 2   
    65    24    57 1   
    66    25    26 2   
    67    25    47 1   
    68    25    85 1   
    69    26    57 1   
    70    26    86 1   
    71    27    28 1   
    72    27    29 1   
    73    27    30 1   
    74    28    87 1   
    75    28    88 1   
    76    28    89 1   
    77    29    90 1   
    78    29    91 1   
    79    29    92 1   
    80    30    93 1   
    81    30    94 1   
    82    30    95 1   
    83    31    32 1   
    84    31    48 1   
    85    31    96 1   
    86    32    33 1   
    87    32    34 1   
    88    32    97 1   
    89    33    98 1   
    90    33    99 1   
    91    33   100 1   
    92    34   101 1   
    93    34   102 1   
    94    34   103 1   
    95    35    36 1   
    96    35    48 1   
    97    35    56 2   
    98    36    37 1   
    99    36    49 1   
   100    36   104 1   
   101    37    38 1   
   102    37    39 1   
   103    37   105 1   
   104    38   106 1   
   105    38   107 1   
   106    38   108 1   
   107    39    40 1   
   108    39   109 1   
   109    39   110 1   
   110    40    49 1   
   111    40   111 1   
   112    40   112 1   
   113    41    42 1   
   114    41    49 1   
   115    41    55 2   
   116    42    50 1   
   117    42   113 1   
   118    42   114 1   
   119    43   115 1   
   120    45   116 1   
   121    46   117 1   
   122    48   118 1   
   123    50   119 1   
@<TRIPOS>SUBSTRUCTURE
     1 MQH         1 TEMP              0 ****  ****    0 ROOT
