@<TRIPOS>MOLECULE
MQH
  120   123     1     0     0
SMALL
No Charge or Current Charge


@<TRIPOS>ATOM
      1 C15        -13.6590    -7.2850   -25.1770 c3         1 MQH      -0.025400
      2 C17        -13.3050    -4.9030   -24.3240 ca         1 MQH      -0.101000
      3 C20        -10.7270    -5.5230   -23.4010 ca         1 MQH      -0.115000
      4 C21        -11.5110    -6.5130   -24.0180 ca         1 MQH      -0.101000
      5 C22        -13.9730    -8.4280   -24.1820 c3         1 MQH      -0.083100
      6 C26        -15.1020    -9.3740   -30.6750 c3         1 MQH      -0.147400
      7 C02        -15.8880    -5.5380   -30.1980 c          1 MQH       0.580100
      8 C04        -13.8460    -4.2480   -30.8650 c3         1 MQH       0.026400
      9 C05        -13.3780    -3.3510   -32.0710 c3         1 MQH      -0.048000
     10 C06        -11.8630    -3.0530   -31.9680 c3         1 MQH      -0.093433
     11 C07        -14.1410    -1.9950   -32.1340 c3         1 MQH      -0.093433
     12 C08        -13.6310    -4.1140   -33.4030 c3         1 MQH      -0.093433
     13 C09        -13.4950    -3.7240   -29.4120 c2         1 MQH       0.661200
     14 C11        -11.4770    -5.0880   -28.9040 c3         1 MQH       0.090500
     15 C12        -11.8150    -6.5280   -28.3730 c          1 MQH       0.587100
     16 C14        -12.9870    -7.7570   -26.5040 c3         1 MQH       0.042700
     17 C16        -12.8060    -6.2110   -24.4910 ca         1 MQH      -0.087300
     18 C18        -12.5200    -3.9120   -23.7100 ca         1 MQH      -0.115000
     19 C19        -11.2300    -4.2210   -23.2500 ca         1 MQH      -0.113000
     20 C23        -13.7180    -8.9440   -27.2090 c          1 MQH       0.612100
     21 C25        -15.1660    -9.6540   -29.1530 c3         1 MQH       0.092400
     22 C27        -13.6690    -9.2910   -31.1970 c          1 MQH       0.596100
     23 C29        -11.9910    -7.7900   -32.0520 c3         1 MQH       0.151900
     24 C31        -16.5980    -9.7870   -28.6570 cc         1 MQH       0.397700
     25 C33        -18.6240   -10.6630   -28.3780 cd         1 MQH       0.259900
     26 C34        -18.7840    -9.4990   -27.6650 cc         1 MQH      -0.283000
     27 C38        -10.0820    -4.5670   -28.3660 c3         1 MQH      -0.026000
     28 C39         -9.7430    -3.1690   -28.9600 c3         1 MQH      -0.085433
     29 C40         -8.9320    -5.5270   -28.7850 c3         1 MQH      -0.085433
     30 C41        -10.0900    -4.4590   -26.8150 c3         1 MQH      -0.085433
     31 C42        -17.4350    -5.5910   -30.2390 c3         1 MQH       0.031700
     32 C43        -18.0520    -5.5460   -31.6700 c3         1 MQH      -0.064700
     33 C44        -17.5040    -6.6790   -32.5710 c3         1 MQH      -0.093600
     34 C45        -19.5990    -5.5820   -31.6370 c3         1 MQH      -0.093600
     35 C47        -18.7700    -4.5770   -28.3350 c          1 MQH       0.609100
     36 C48        -18.5680    -3.3420   -27.3880 c5         1 MQH       0.025700
     37 C49        -19.6040    -2.2010   -27.6710 c5         1 MQH      -0.065700
     38 C50        -21.0180    -2.6360   -28.1240 c3         1 MQH      -0.087100
     39 C51        -18.8480    -1.3210   -28.7040 c5         1 MQH      -0.099400
     40 C52        -17.4240    -1.2490   -28.0960 c5         1 MQH       0.105000
     41 C54        -16.0340    -3.1740   -27.1350 c          1 MQH       0.564100
     42 C55        -14.7070    -2.4560   -27.5390 c3         1 MQH       0.153800
     43 N03        -15.2880    -4.5670   -30.9620 ns         1 MQH      -0.511900
     44 N10        -12.5480    -4.0850   -28.5970 n2         1 MQH      -0.699900
     45 N13        -12.7770    -6.5900   -27.3940 ns         1 MQH      -0.488900
     46 N24        -14.3770    -8.6700   -28.3880 ns         1 MQH      -0.519900
     47 N32        -17.3700   -10.8300   -28.9480 nd         1 MQH      -0.662000
     48 N46        -17.8950    -4.4740   -29.3940 ns         1 MQH      -0.503900
     49 N53        -17.2650    -2.6200   -27.5670 n          1 MQH      -0.439800
     50 N56        -14.3340    -2.7130   -28.9700 nu         1 MQH      -0.909400
     51 O28        -13.3050    -8.0050   -31.5060 os         1 MQH      -0.460100
     52 O30        -12.9530   -10.2700   -31.3520 o          1 MQH      -0.460000
     53 O36        -13.6740   -10.0880   -26.7760 o          1 MQH      -0.588100
     54 O37        -11.2810    -7.5470   -28.7910 o          1 MQH      -0.614100
     55 O57        -16.0260    -4.2370   -26.5280 o          1 MQH      -0.566100
     56 O58        -19.4740    -5.5570   -28.1360 o          1 MQH      -0.567100
     57 S35        -17.3320    -8.5430   -27.6710 ss         1 MQH       0.048600
     58 H151       -14.6280    -6.8460   -25.4520 hc         1 MQH       0.072700
     59 H171       -14.3040    -4.6510   -24.6650 ha         1 MQH       0.123500
     60 H201        -9.7290    -5.7650   -23.0440 ha         1 MQH       0.109000
     61 H211       -11.1050    -7.5160   -24.1310 ha         1 MQH       0.123500
     62 H223       -14.3360    -8.0170   -23.2320 hc         1 MQH       0.044033
     63 H222       -14.7550    -9.0900   -24.5720 hc         1 MQH       0.044033
     64 H221       -13.0800    -9.0300   -23.9740 hc         1 MQH       0.044033
     65 H262       -15.6200    -8.4320   -30.8810 hc         1 MQH       0.078700
     66 H261       -15.6100   -10.1910   -31.1990 hc         1 MQH       0.078700
     67 H041       -13.3230    -5.2060   -30.9720 h1         1 MQH       0.096700
     68 H063       -11.6430    -2.4570   -31.0750 hc         1 MQH       0.041589
     69 H061       -11.2780    -3.9790   -31.9250 hc         1 MQH       0.041589
     70 H062       -11.5150    -2.4800   -32.8370 hc         1 MQH       0.041589
     71 H072       -13.9110    -1.3630   -31.2690 hc         1 MQH       0.041589
     72 H073       -13.8490    -1.4310   -33.0280 hc         1 MQH       0.041589
     73 H071       -15.2270    -2.1390   -32.1790 hc         1 MQH       0.041589
     74 H083       -13.1240    -5.0860   -33.4020 hc         1 MQH       0.041589
     75 H081       -14.7000    -4.2920   -33.5710 hc         1 MQH       0.041589
     76 H082       -13.2540    -3.5430   -34.2610 hc         1 MQH       0.041589
     77 H111       -11.3810    -5.2070   -29.9890 h1         1 MQH       0.054700
     78 H141       -11.9950    -8.1530   -26.2530 h1         1 MQH       0.083700
     79 H181       -12.9130    -2.9050   -23.5890 ha         1 MQH       0.109000
     80 H191       -10.6220    -3.4540   -22.7750 ha         1 MQH       0.108000
     81 H251       -14.7040   -10.6390   -28.9990 h1         1 MQH       0.118700
     82 H292       -11.8090    -6.7190   -32.2030 h1         1 MQH       0.048033
     83 H291       -11.2150    -8.1730   -31.3770 h1         1 MQH       0.048033
     84 H293       -11.8840    -8.2940   -33.0210 h1         1 MQH       0.048033
     85 H331       -19.3810   -11.4250   -28.5190 h4         1 MQH       0.035100
     86 H341       -19.6600    -9.1460   -27.1390 h4         1 MQH       0.162000
     87 H392        -8.7810    -2.8050   -28.5780 hc         1 MQH       0.037256
     88 H391        -9.6640    -3.2180   -30.0520 hc         1 MQH       0.037256
     89 H393       -10.4980    -2.4190   -28.7000 hc         1 MQH       0.037256
     90 H401        -7.9530    -5.0960   -28.5420 hc         1 MQH       0.037256
     91 H403        -8.9940    -6.4890   -28.2630 hc         1 MQH       0.037256
     92 H402        -8.9540    -5.7190   -29.8650 hc         1 MQH       0.037256
     93 H412        -9.1280    -4.0860   -26.4430 hc         1 MQH       0.037256
     94 H413       -10.8700    -3.7740   -26.4630 hc         1 MQH       0.037256
     95 H411       -10.2650    -5.4370   -26.3520 hc         1 MQH       0.037256
     96 H421       -17.7200    -6.5390   -29.7660 h1         1 MQH       0.118700
     97 H431       -17.7700    -4.5940   -32.1360 hc         1 MQH       0.030700
     98 H441       -16.4150    -6.6120   -32.6830 hc         1 MQH       0.044200
     99 H442       -17.7470    -7.6630   -32.1520 hc         1 MQH       0.044200
    100 H443       -17.9420    -6.6200   -33.5750 hc         1 MQH       0.044200
    101 H451       -20.0040    -4.7140   -31.1020 hc         1 MQH       0.044200
    102 H452       -20.0100    -5.5630   -32.6540 hc         1 MQH       0.044200
    103 H453       -19.9590    -6.4900   -31.1390 hc         1 MQH       0.044200
    104 H481       -18.6760    -3.7180   -26.3630 h1         1 MQH       0.104700
    105 H491       -19.7510    -1.6230   -26.7500 hc         1 MQH       0.063700
    106 H501       -21.4770    -3.3100   -27.3910 hc         1 MQH       0.046367
    107 H503       -21.6770    -1.7660   -28.2310 hc         1 MQH       0.046367
    108 H502       -20.9960    -3.1510   -29.0920 hc         1 MQH       0.046367
    109 H512       -19.2970    -0.3270   -28.8200 hc         1 MQH       0.056700
    110 H511       -18.8330    -1.7860   -29.6970 hc         1 MQH       0.056700
    111 H521       -16.6750    -0.9900   -28.8550 h1         1 MQH       0.048200
    112 H522       -17.3690    -0.5120   -27.2820 h1         1 MQH       0.048200
    113 H552       -13.9210    -2.7890   -26.8490 h1         1 MQH       0.083700
    114 H551       -14.8460    -1.3810   -27.3680 h1         1 MQH       0.083700
    115 H031       -15.8840    -4.0210   -31.5730 hn         1 MQH       0.319500
    116 H131       -13.1780    -5.6920   -27.1380 hn         1 MQH       0.352500
    117 H241       -14.3880    -7.6950   -28.6890 hn         1 MQH       0.355500
    118 H461       -17.3640    -3.6120   -29.4150 hn         1 MQH       0.300500
    119 H561       -14.9710    -2.3750   -29.6830 hn         1 MQH       0.474000
    120 O01        -15.2230    -6.2490   -29.4660 o          1 MQH      -0.598100
@<TRIPOS>BOND
     1     1     5 1   
     2     1    16 1   
     3     1    17 1   
     4     1    58 1   
     5     2    17 ar  
     6     2    18 ar  
     7     2    59 1   
     8     3     4 ar  
     9     3    19 ar  
    10     3    60 1   
    11     4    17 ar  
    12     4    61 1   
    13     5    62 1   
    14     5    63 1   
    15     5    64 1   
    16     6    21 1   
    17     6    22 1   
    18     6    65 1   
    19     6    66 1   
    20     7    31 1   
    21     7    43 1   
    22     7   120 2   
    23     8     9 1   
    24     8    13 1   
    25     8    43 1   
    26     8    67 1   
    27     9    10 1   
    28     9    11 1   
    29     9    12 1   
    30    10    68 1   
    31    10    69 1   
    32    10    70 1   
    33    11    71 1   
    34    11    72 1   
    35    11    73 1   
    36    12    74 1   
    37    12    75 1   
    38    12    76 1   
    39    13    44 2   
    40    13    50 1   
    41    14    15 1   
    42    14    27 1   
    43    14    44 1   
    44    14    77 1   
    45    15    45 1   
    46    15    54 2   
    47    16    20 1   
    48    16    45 1   
    49    16    78 1   
    50    18    19 ar  
    51    18    79 1   
    52    19    80 1   
    53    20    46 1   
    54    20    53 2   
    55    21    24 1   
    56    21    46 1   
    57    21    81 1   
    58    22    51 1   
    59    22    52 2   
    60    23    51 1   
    61    23    82 1   
    62    23    83 1   
    63    23    84 1   
    64    24    47 2   
    65    24    57 1   
    66    25    26 2   
    67    25    47 1   
    68    25    85 1   
    69    26    57 1   
    70    26    86 1   
    71    27    28 1   
    72    27    29 1   
    73    27    30 1   
    74    28    87 1   
    75    28    88 1   
    76    28    89 1   
    77    29    90 1   
    78    29    91 1   
    79    29    92 1   
    80    30    93 1   
    81    30    94 1   
    82    30    95 1   
    83    31    32 1   
    84    31    48 1   
    85    31    96 1   
    86    32    33 1   
    87    32    34 1   
    88    32    97 1   
    89    33    98 1   
    90    33    99 1   
    91    33   100 1   
    92    34   101 1   
    93    34   102 1   
    94    34   103 1   
    95    35    36 1   
    96    35    48 1   
    97    35    56 2   
    98    36    37 1   
    99    36    49 1   
   100    36   104 1   
   101    37    38 1   
   102    37    39 1   
   103    37   105 1   
   104    38   106 1   
   105    38   107 1   
   106    38   108 1   
   107    39    40 1   
   108    39   109 1   
   109    39   110 1   
   110    40    49 1   
   111    40   111 1   
   112    40   112 1   
   113    41    42 1   
   114    41    49 1   
   115    41    55 2   
   116    42    50 1   
   117    42   113 1   
   118    42   114 1   
   119    43   115 1   
   120    45   116 1   
   121    46   117 1   
   122    48   118 1   
   123    50   119 1   
@<TRIPOS>SUBSTRUCTURE
     1 MQH         1 TEMP              0 ****  ****    0 ROOT
