@<TRIPOS>MOLECULE
MQI
   23    24     1     0     0
SMALL
bcc


@<TRIPOS>ATOM
      1 S           -2.7630    -0.7050    -0.2920 sy         1 MQI       1.067300
      2 O1          -1.9110    -1.6380     0.4400 o          1 MQI      -0.590800
      3 O2          -3.2750    -1.1010    -1.5980 o          1 MQI      -0.590800
      4 C1          -4.6370     2.9690    -1.2360 ca         1 MQI       0.456200
      5 C2          -4.0540     4.2440    -1.4470 ca         1 MQI      -0.198600
      6 C3          -2.6960     4.3400    -1.3110 ca         1 MQI      -0.069000
      7 C4          -1.9360     3.1980    -0.9740 ca         1 MQI      -0.158300
      8 C5          -0.5330     3.2180    -0.8090 ca         1 MQI      -0.050000
      9 C6           0.1470     2.0800    -0.4650 ca         1 MQI      -0.155000
     10 C7          -0.5410     0.8670    -0.2710 ca         1 MQI       0.010000
     11 C8          -1.8980     0.8300    -0.4440 ca         1 MQI      -0.312800
     12 C9          -2.6330     1.9830    -0.7980 ca         1 MQI       0.459600
     13 N           -3.9730     1.8890    -0.9300 nb         1 MQI      -0.694000
     14 H1          -5.7140     2.8630    -1.3300 h4         1 MQI       0.026100
     15 H3          -2.1900     5.2870    -1.4570 ha         1 MQI       0.140000
     16 H5           0.0010     4.1490    -0.9540 ha         1 MQI       0.138000
     17 H6           1.2200     2.1050    -0.3380 ha         1 MQI       0.143000
     18 H7           0.0090    -0.0190     0.0150 ha         1 MQI       0.165000
     19 H101        -5.7070     5.5520    -1.0560 hc         1 MQI       0.049367
     20 H102        -4.3460     6.3300    -1.8650 hc         1 MQI       0.049367
     21 H103        -5.4170     5.2520    -2.7600 hc         1 MQI       0.049367
     22 HS1         -3.8060    -0.3650     0.5000 hs         1 MQI       0.111800
     23 C10         -4.9230     5.4090    -1.8000 c3         1 MQI      -0.044800
@<TRIPOS>BOND
     1     1     2 2   
     2     1     3 2   
     3     1    11 1   
     4     1    22 1   
     5     4     5 ar  
     6     4    13 ar  
     7     4    14 1   
     8     5     6 ar  
     9     5    23 1   
    10     6     7 ar  
    11     6    15 1   
    12     7     8 ar  
    13     7    12 ar  
    14     8     9 ar  
    15     8    16 1   
    16     9    10 ar  
    17     9    17 1   
    18    10    11 ar  
    19    10    18 1   
    20    11    12 ar  
    21    12    13 ar  
    22    19    23 1   
    23    20    23 1   
    24    21    23 1   
@<TRIPOS>SUBSTRUCTURE
     1 MQI         1 TEMP              0 ****  ****    0 ROOT
