@<TRIPOS>MOLECULE
MQI
   23    24     1     0     0
SMALL
No Charge or Current Charge


@<TRIPOS>ATOM
      1 S           -2.7500    -0.7520    -0.1940 sy         1 MQI       0.925700
      2 O1          -2.5170    -1.1310     1.2110 o          1 MQI      -0.520000
      3 O2          -2.3860    -1.6810    -1.2780 o          1 MQI      -0.520000
      4 C1          -4.7000     3.0050    -1.1260 ca         1 MQI       0.390900
      5 C2          -4.0890     4.2500    -1.3670 ca         1 MQI      -0.133300
      6 C3          -2.6880     4.3280    -1.3130 ca         1 MQI      -0.051000
      7 C4          -1.9590     3.1620    -1.0170 ca         1 MQI      -0.093000
      8 C5          -0.5540     3.2110    -0.9550 ca         1 MQI      -0.032000
      9 C6           0.1760     2.0500    -0.6600 ca         1 MQI      -0.137000
     10 C7          -0.4950     0.8400    -0.4280 ca         1 MQI       0.028000
     11 C8          -1.9010     0.7950    -0.4910 ca         1 MQI      -0.247500
     12 C9          -2.6520     1.9450    -0.7840 ca         1 MQI       0.329000
     13 N           -4.0030     1.8790    -0.8410 nb         1 MQI      -0.694000
     14 H1          -5.7840     2.9020    -1.1620 h4         1 MQI       0.026100
     15 H3          -2.1800     5.2720    -1.4960 ha         1 MQI       0.122000
     16 H5          -0.0270     4.1470    -1.1340 ha         1 MQI       0.120000
     17 H6           1.2620     2.0870    -0.6120 ha         1 MQI       0.125000
     18 H7           0.0770    -0.0590    -0.1990 ha         1 MQI       0.147000
     19 H101        -5.9670     5.3560    -1.3800 hc         1 MQI       0.049367
     20 H102        -4.5330     6.3690    -1.1680 hc         1 MQI       0.049367
     21 H103        -4.9120     5.6950    -2.7620 hc         1 MQI       0.049367
     22 HS1         -4.0760    -0.4190    -0.3370 hs         1 MQI       0.111800
     23 C10         -4.9210     5.4840    -1.6860 c3         1 MQI      -0.044800
@<TRIPOS>BOND
     1     1     2 2   
     2     1     3 2   
     3     1    11 1   
     4     1    22 1   
     5     4     5 ar  
     6     4    13 ar  
     7     4    14 1   
     8     5     6 ar  
     9     5    23 1   
    10     6     7 ar  
    11     6    15 1   
    12     7     8 ar  
    13     7    12 ar  
    14     8     9 ar  
    15     8    16 1   
    16     9    10 ar  
    17     9    17 1   
    18    10    11 ar  
    19    10    18 1   
    20    11    12 ar  
    21    12    13 ar  
    22    19    23 1   
    23    20    23 1   
    24    21    23 1   
@<TRIPOS>SUBSTRUCTURE
     1 MQI         1 TEMP              0 ****  ****    0 ROOT
