@<TRIPOS>MOLECULE
MQJ
   37    39     1     0     0
SMALL
No Charge or Current Charge


@<TRIPOS>ATOM
      1 C10         -4.5730     9.9090   -18.5320 c          1 MQJ       0.617700
      2 C11         -4.5900    11.1510   -19.4010 ca         1 MQJ      -0.183600
      3 C12         -3.5090    12.9410   -20.6850 ca         1 MQJ      -0.155000
      4 C13         -3.4190    11.8110   -19.8560 ca         1 MQJ       0.193000
      5 C14         -5.8440    11.6630   -19.8140 ca         1 MQJ      -0.032000
      6 C15         -5.9270    12.7960   -20.6410 ca         1 MQJ      -0.131000
      7 C16         -4.7600    13.4380   -21.0780 ca         1 MQJ      -0.059000
      8 C21         -0.8580     9.2910   -22.3940 ca         1 MQJ      -0.081000
      9 C22         -0.9240     9.9290   -23.6440 ca         1 MQJ      -0.114000
     10 F20         -2.1810    11.3800   -19.5270 f          1 MQJ      -0.185000
     11 O19         -5.5970     9.2830   -18.2870 o          1 MQJ      -0.583100
     12 N09         -3.3490     9.4810   -18.0310 ns         1 MQJ      -0.363300
     13 N08         -3.1200     8.1680   -17.4520 n7         1 MQJ      -0.587300
     14 S07         -3.0350     6.7570   -18.3810 sy         1 MQJ       1.131600
     15 O17         -4.2760     6.0220   -18.1200 o          1 MQJ      -0.534000
     16 O18         -1.7070     6.1840   -18.1340 o          1 MQJ      -0.534000
     17 C06         -3.0980     7.4460   -20.0490 ca         1 MQJ      -0.275500
     18 C01         -1.9440     8.0420   -20.5970 ca         1 MQJ       0.027000
     19 C02         -2.0020     8.6710   -21.8550 ca         1 MQJ      -0.067000
     20 C23         -2.1330     9.9500   -24.3620 ca         1 MQJ      -0.085000
     21 C24         -3.2780     9.3330   -23.8280 ca         1 MQJ      -0.112000
     22 C03         -3.2170     8.6930   -22.5760 ca         1 MQJ       0.005000
     23 C04         -4.3630     8.0830   -22.0350 ca         1 MQJ      -0.111000
     24 C05         -4.3080     7.4630   -20.7760 ca         1 MQJ      -0.034000
     25 H1          -2.6000    13.4310   -21.0250 ha         1 MQJ       0.138000
     26 H2          -6.7670    11.1820   -19.4940 ha         1 MQJ       0.143000
     27 H3          -6.9000    13.1740   -20.9460 ha         1 MQJ       0.128000
     28 H4          -4.8250    14.3140   -21.7210 ha         1 MQJ       0.124000
     29 H6          -0.0390    10.4080   -24.0580 ha         1 MQJ       0.118000
     30 H7          -2.5670    10.1040   -18.2250 hn         1 MQJ       0.362500
     31 H8          -3.7720     7.9260   -16.7000 hn         1 MQJ       0.490000
     32 H9          -1.0110     8.0440   -20.0360 ha         1 MQJ       0.139000
     33 H10         -2.1830    10.4450   -25.3290 ha         1 MQJ       0.117000
     34 H11         -4.2100     9.3550   -24.3880 ha         1 MQJ       0.118000
     35 H12         -5.3020     8.1000   -22.5830 ha         1 MQJ       0.119000
     36 H13         -5.2110     7.0190   -20.3610 ha         1 MQJ       0.137000
     37 H5           0.0820     9.2830   -21.8450 ha         1 MQJ       0.120000
@<TRIPOS>BOND
     1     1     2 1   
     2     1    11 2   
     3     1    12 1   
     4     2     4 ar  
     5     2     5 ar  
     6     3     4 ar  
     7     3     7 ar  
     8     3    25 1   
     9     4    10 1   
    10     5     6 ar  
    11     5    26 1   
    12     6     7 ar  
    13     6    27 1   
    14     7    28 1   
    15     8     9 ar  
    16     8    19 ar  
    17     8    37 1   
    18     9    20 ar  
    19     9    29 1   
    20    12    13 1   
    21    12    30 1   
    22    13    14 1   
    23    13    31 1   
    24    14    15 2   
    25    14    16 2   
    26    14    17 1   
    27    17    18 ar  
    28    17    24 ar  
    29    18    19 ar  
    30    18    32 1   
    31    19    22 ar  
    32    20    21 ar  
    33    20    33 1   
    34    21    22 ar  
    35    21    34 1   
    36    22    23 ar  
    37    23    24 ar  
    38    23    35 1   
    39    24    36 1   
@<TRIPOS>SUBSTRUCTURE
     1 MQJ         1 TEMP              0 ****  ****    0 ROOT
