@<TRIPOS>MOLECULE
MQJ
   37    39     1     0     0
SMALL
abcg2


@<TRIPOS>ATOM
      1 C10         -4.9320    10.5790   -18.0840 c          1 MQJ       0.617700
      2 C11         -5.6910    11.8150   -18.4380 ca         1 MQJ      -0.183600
      3 C12         -6.5030    13.5210   -19.9780 ca         1 MQJ      -0.155000
      4 C13         -5.7530    12.3930   -19.7050 ca         1 MQJ       0.193000
      5 C14         -6.4320    12.4290   -17.4220 ca         1 MQJ      -0.032000
      6 C15         -7.1820    13.5680   -17.6650 ca         1 MQJ      -0.131000
      7 C16         -7.2180    14.1140   -18.9450 ca         1 MQJ      -0.059000
      8 C21          0.3480     7.0250   -22.7060 ca         1 MQJ      -0.081000
      9 C22          0.9120     7.1780   -23.9460 ca         1 MQJ      -0.114000
     10 F20         -5.0730    11.8320   -20.7370 f          1 MQJ      -0.185000
     11 O19         -5.2310     9.8920   -17.1150 o          1 MQJ      -0.583100
     12 N09         -3.8600    10.2710   -18.8660 ns         1 MQJ      -0.363300
     13 N08         -3.0650     9.1740   -18.5830 n7         1 MQJ      -0.587300
     14 S07         -3.5270     7.7340   -19.3520 sy         1 MQJ       1.131600
     15 O17         -4.9580     7.6710   -19.5210 o          1 MQJ      -0.534000
     16 O18         -2.8390     6.7110   -18.6040 o          1 MQJ      -0.534000
     17 C06         -2.7980     7.9170   -20.9480 ca         1 MQJ      -0.275500
     18 C01         -1.5440     7.4070   -21.1650 ca         1 MQJ       0.027000
     19 C02         -0.9410     7.5450   -22.4350 ca         1 MQJ      -0.067000
     20 C23          0.2110     7.8560   -24.9700 ca         1 MQJ      -0.085000
     21 C24         -1.0400     8.3680   -24.7380 ca         1 MQJ      -0.112000
     22 C03         -1.6510     8.2290   -23.4690 ca         1 MQJ       0.005000
     23 C04         -2.9430     8.7420   -23.1950 ca         1 MQJ      -0.111000
     24 C05         -3.5180     8.5900   -21.9620 ca         1 MQJ      -0.034000
     25 H1          -6.5190    13.9160   -20.9840 ha         1 MQJ       0.138000
     26 H2          -6.4010    11.9880   -16.4350 ha         1 MQJ       0.143000
     27 H3          -7.7400    14.0280   -16.8600 ha         1 MQJ       0.128000
     28 H4          -7.8050    15.0010   -19.1450 ha         1 MQJ       0.124000
     29 H6           1.8980     6.7790   -24.1480 ha         1 MQJ       0.118000
     30 H7          -3.5010    10.9020   -19.5650 hn         1 MQJ       0.362500
     31 H8          -2.9900     9.0070   -17.5800 hn         1 MQJ       0.490000
     32 H9          -1.0120     6.8940   -20.3750 ha         1 MQJ       0.139000
     33 H10          0.6700     7.9680   -25.9440 ha         1 MQJ       0.117000
     34 H11         -1.5780     8.8860   -25.5220 ha         1 MQJ       0.118000
     35 H12         -3.4790     9.2570   -23.9830 ha         1 MQJ       0.119000
     36 H13         -4.5070     8.9730   -21.7580 ha         1 MQJ       0.137000
     37 H5           0.8780     6.5060   -21.9170 ha         1 MQJ       0.120000
@<TRIPOS>BOND
     1     1     2 1   
     2     1    11 2   
     3     1    12 1   
     4     2     4 ar  
     5     2     5 ar  
     6     3     4 ar  
     7     3     7 ar  
     8     3    25 1   
     9     4    10 1   
    10     5     6 ar  
    11     5    26 1   
    12     6     7 ar  
    13     6    27 1   
    14     7    28 1   
    15     8     9 ar  
    16     8    19 ar  
    17     8    37 1   
    18     9    20 ar  
    19     9    29 1   
    20    12    13 1   
    21    12    30 1   
    22    13    14 1   
    23    13    31 1   
    24    14    15 2   
    25    14    16 2   
    26    14    17 1   
    27    17    18 ar  
    28    17    24 ar  
    29    18    19 ar  
    30    18    32 1   
    31    19    22 ar  
    32    20    21 ar  
    33    20    33 1   
    34    21    22 ar  
    35    21    34 1   
    36    22    23 ar  
    37    23    24 ar  
    38    23    35 1   
    39    24    36 1   
@<TRIPOS>SUBSTRUCTURE
     1 MQJ         1 TEMP              0 ****  ****    0 ROOT
