@<TRIPOS>MOLECULE
MQM
   44    47     1     0     0
SMALL
abcg2


@<TRIPOS>ATOM
      1 C4           2.6300     0.4080     0.0380 ca         1 MQM       0.196000
      2 C5           2.5890    -1.0040     0.0930 ca         1 MQM      -0.312000
      3 C6           3.8230    -1.6640     0.1570 ca         1 MQM       0.202900
      4 N1           4.9660    -1.0350     0.1630 nb         1 MQM      -0.255000
      5 N3           3.8040     1.0580     0.0390 nb         1 MQM      -0.265000
      6 CAT         -1.6630    -1.5970    -1.5700 ca         1 MQM       0.126000
      7 CAU         -2.8230    -2.2970    -1.8550 ca         1 MQM      -0.106500
      8 CAV         -3.4290    -3.0340    -0.8510 ca         1 MQM      -0.094000
      9 CAW         -2.8840    -3.0680     0.4220 ca         1 MQM      -0.106500
     10 CAX         -1.7240    -2.3540     0.6780 ca         1 MQM       0.126000
     11 CLZ         -1.0880    -2.3650     2.2870 cl         1 MQM      -0.181500
     12 CAS         -1.0820    -1.5970    -0.3010 cp         1 MQM      -0.009000
     13 CAH          0.1910    -0.8880    -0.0510 cp         1 MQM      -0.178000
     14 CAG          1.3330    -1.6290     0.0260 ca         1 MQM       0.046000
     15 C2           4.9010     0.3230     0.0990 ca         1 MQM       0.407900
     16 NAK          6.0850     0.9520     0.0800 nv         1 MQM      -1.068900
     17 NAJ          1.5150     1.1420    -0.0020 nb         1 MQM      -0.259000
     18 CAI          0.3260     0.5510    -0.0060 ca         1 MQM       0.443900
     19 NAL         -0.7320     1.3790     0.0130 nh         1 MQM      -0.777300
     20 CAM         -0.5390     2.8220    -0.0800 c5         1 MQM       0.228800
     21 CAP         -2.1120     1.0430     0.3580 c5         1 MQM       0.227800
     22 CAO         -2.7040     2.3810     0.7830 c5         1 MQM      -0.096400
     23 CAN         -1.9550     3.3840    -0.0880 c5         1 MQM      -0.087700
     24 CAQ         -2.0230     4.8240     0.3860 c3         1 MQM       0.160800
     25 NAR         -3.3790     5.3420     0.2920 n8         1 MQM      -0.997200
     26 H1           3.8530    -2.7490     0.2010 h4         1 MQM       0.017100
     27 H2          -3.2450    -2.2720    -2.8500 ha         1 MQM       0.134500
     28 H3          -4.3350    -3.5860    -1.0610 ha         1 MQM       0.124000
     29 H4          -3.3560    -3.6400     1.2080 ha         1 MQM       0.134500
     30 H5           1.2770    -2.7110    -0.0090 ha         1 MQM       0.119000
     31 H6           6.1250     1.9550     0.1280 hn         1 MQM       0.503500
     32 H7           6.9320     0.4330     0.2300 hn         1 MQM       0.503500
     33 H8           0.0250     3.1960     0.7820 h1         1 MQM       0.064200
     34 H9           0.0230     3.0860    -0.9760 h1         1 MQM       0.064200
     35 H10         -2.6570     0.6450    -0.5010 h1         1 MQM       0.054200
     36 H11         -2.1560     0.3100     1.1620 h1         1 MQM       0.054200
     37 H12         -3.7850     2.4020     0.6480 hc         1 MQM       0.054700
     38 H13         -2.4910     2.5680     1.8400 hc         1 MQM       0.054700
     39 H14         -2.3520     3.3330    -1.1080 hc         1 MQM       0.074700
     40 H15         -1.5970     4.8780     1.4000 h1         1 MQM       0.033200
     41 H16         -1.3810     5.4380    -0.2510 h1         1 MQM       0.033200
     42 H17         -3.9610     4.9030     0.9950 hn         1 MQM       0.393500
     43 H18         -3.3790     6.3280     0.5200 hn         1 MQM       0.393500
     44 CLY         -0.9170    -0.6790    -2.8310 cl         1 MQM      -0.181500
@<TRIPOS>BOND
     1     1     2 ar  
     2     1     5 ar  
     3     1    17 ar  
     4     2     3 ar  
     5     2    14 ar  
     6     3     4 ar  
     7     3    26 1   
     8     4    15 ar  
     9     5    15 ar  
    10     6     7 ar  
    11     6    12 ar  
    12     6    44 1   
    13     7     8 ar  
    14     7    27 1   
    15     8     9 ar  
    16     8    28 1   
    17     9    10 ar  
    18     9    29 1   
    19    10    11 1   
    20    10    12 ar  
    21    12    13 1   
    22    13    14 ar  
    23    13    18 ar  
    24    14    30 1   
    25    15    16 1   
    26    16    31 1   
    27    16    32 1   
    28    17    18 ar  
    29    18    19 1   
    30    19    20 1   
    31    19    21 1   
    32    20    23 1   
    33    20    33 1   
    34    20    34 1   
    35    21    22 1   
    36    21    35 1   
    37    21    36 1   
    38    22    23 1   
    39    22    37 1   
    40    22    38 1   
    41    23    24 1   
    42    23    39 1   
    43    24    25 1   
    44    24    40 1   
    45    24    41 1   
    46    25    42 1   
    47    25    43 1   
@<TRIPOS>SUBSTRUCTURE
     1 MQM         1 TEMP              0 ****  ****    0 ROOT
