@<TRIPOS>MOLECULE
MQM
   44    47     1     0     0
SMALL
No Charge or Current Charge


@<TRIPOS>ATOM
      1 C4           2.7350     0.3890     0.1080 ca         1 MQM       0.196000
      2 C5           2.6830    -1.0140    -0.0560 ca         1 MQM      -0.312000
      3 C6           3.8860    -1.7440    -0.0770 ca         1 MQM       0.202900
      4 N1           5.0750    -1.1340     0.0560 nb         1 MQM      -0.255000
      5 N3           3.9420     0.9790     0.2390 nb         1 MQM      -0.265000
      6 CAT         -1.7130    -1.5020    -1.6400 ca         1 MQM       0.126000
      7 CAU         -2.9430    -2.1530    -1.8400 ca         1 MQM      -0.106500
      8 CAV         -3.5200    -2.9070    -0.8050 ca         1 MQM      -0.094000
      9 CAW         -2.8640    -3.0120     0.4320 ca         1 MQM      -0.106500
     10 CAX         -1.6340    -2.3640     0.6370 ca         1 MQM       0.126000
     11 ClZ         -0.8630    -2.5170     2.2150 cl         1 MQM      -0.181500
     12 CAS         -1.0400    -1.5920    -0.3940 cp         1 MQM      -0.009000
     13 CAH          0.2650    -0.8980    -0.1780 cp         1 MQM      -0.178000
     14 CAG          1.4490    -1.6600    -0.2020 ca         1 MQM       0.046000
     15 C2           5.0290     0.1950     0.2050 ca         1 MQM       0.407900
     16 NAK          6.2220     0.8220     0.3420 nv         1 MQM      -1.068900
     17 NAJ          1.5980     1.1080     0.1330 nb         1 MQM      -0.259000
     18 CAI          0.3930     0.5090     0.0040 ca         1 MQM       0.443900
     19 NAL         -0.7020     1.4130     0.0840 nh         1 MQM      -0.777300
     20 CAM         -0.5690     2.8830    -0.1290 c5         1 MQM       0.228800
     21 CAP         -2.0500     1.0540     0.5980 c5         1 MQM       0.227800
     22 CAO         -2.6050     2.4340     1.0260 c5         1 MQM      -0.096400
     23 CAN         -2.0500     3.3460    -0.1040 c5         1 MQM      -0.087700
     24 CAQ         -2.2220     4.8660     0.1170 c3         1 MQM       0.160800
     25 NAR         -3.6460     5.2550     0.1280 n8         1 MQM      -0.997200
     26 H1           3.8990    -2.8260    -0.2010 h4         1 MQM       0.017100
     27 H2          -3.4470    -2.0730    -2.8000 ha         1 MQM       0.134500
     28 H3          -4.4730    -3.4090    -0.9620 ha         1 MQM       0.124000
     29 H4          -3.3090    -3.5950     1.2340 ha         1 MQM       0.134500
     30 H5           1.4010    -2.7390    -0.3430 ha         1 MQM       0.119000
     31 H6           6.2230     1.7800     0.6870 hn         1 MQM       0.503500
     32 H7           7.0430     0.2620     0.5580 hn         1 MQM       0.503500
     33 H8           0.0090     3.3510     0.6810 h1         1 MQM       0.064200
     34 H9          -0.0880     3.1270    -1.0870 h1         1 MQM       0.064200
     35 H10         -2.6730     0.6100    -0.1900 h1         1 MQM       0.054200
     36 H11         -2.0080     0.3600     1.4500 h1         1 MQM       0.054200
     37 H12         -3.6990     2.4350     1.0830 hc         1 MQM       0.054700
     38 H13         -2.2220     2.7290     2.0110 hc         1 MQM       0.054700
     39 H14         -2.5280     3.1050    -1.0610 hc         1 MQM       0.074700
     40 H15         -1.7650     5.1540     1.0740 h1         1 MQM       0.033200
     41 H16         -1.7130     5.4120    -0.6900 h1         1 MQM       0.033200
     42 H17         -4.1070     4.7990     0.9240 hn         1 MQM       0.393500
     43 H18         -3.7170     6.2560     0.3490 hn         1 MQM       0.393500
     44 ClY         -1.0310    -0.5790    -2.9790 cl         1 MQM      -0.181500
@<TRIPOS>BOND
     1     1     2 ar  
     2     1     5 ar  
     3     1    17 ar  
     4     2     3 ar  
     5     2    14 ar  
     6     3     4 ar  
     7     3    26 1   
     8     4    15 ar  
     9     5    15 ar  
    10     6     7 ar  
    11     6    12 ar  
    12     6    44 1   
    13     7     8 ar  
    14     7    27 1   
    15     8     9 ar  
    16     8    28 1   
    17     9    10 ar  
    18     9    29 1   
    19    10    11 1   
    20    10    12 ar  
    21    12    13 1   
    22    13    14 ar  
    23    13    18 ar  
    24    14    30 1   
    25    15    16 1   
    26    16    31 1   
    27    16    32 1   
    28    17    18 ar  
    29    18    19 1   
    30    19    20 1   
    31    19    21 1   
    32    20    23 1   
    33    20    33 1   
    34    20    34 1   
    35    21    22 1   
    36    21    35 1   
    37    21    36 1   
    38    22    23 1   
    39    22    37 1   
    40    22    38 1   
    41    23    24 1   
    42    23    39 1   
    43    24    25 1   
    44    24    40 1   
    45    24    41 1   
    46    25    42 1   
    47    25    43 1   
@<TRIPOS>SUBSTRUCTURE
     1 MQM         1 TEMP              0 ****  ****    0 ROOT
