@<TRIPOS>MOLECULE
MQN
   22    23     1     0     0
SMALL
abcg2


@<TRIPOS>ATOM
      1 CAA          3.8710     0.5830    -0.0060 c3         1 MQN      -0.145400
      2 CAI          2.4430     0.1310    -0.0090 ca         1 MQN       0.354300
      3 NAH          1.5010     1.0350     0.0450 nb         1 MQN      -0.661000
      4 CAL          0.2050     0.6420     0.0450 ca         1 MQN       0.238000
      5 CAF         -0.8080     1.6250     0.1040 ca         1 MQN      -0.047000
      6 CAD         -2.1260     1.2740     0.1100 ca         1 MQN      -0.152000
      7 CAJ         -2.5270    -0.0860     0.0480 ca         1 MQN       0.298000
      8 NAB         -3.8700    -0.3940     0.1020 nv         1 MQN      -1.079000
      9 CAG         -1.5520    -1.0590    -0.0110 ca         1 MQN      -0.183000
     10 CAK         -0.1880    -0.7150    -0.0100 ca         1 MQN      -0.039000
     11 CAE          0.8520    -1.6720    -0.0660 ca         1 MQN      -0.075000
     12 CAC          2.1480    -1.2560    -0.0660 ca         1 MQN      -0.154000
     13 H1           4.3990     0.2270    -0.8920 hc         1 MQN       0.050033
     14 H2           3.9340     1.6690     0.0180 hc         1 MQN       0.050033
     15 H3           4.4050     0.1910     0.8610 hc         1 MQN       0.050033
     16 H4          -0.5170     2.6660     0.1520 ha         1 MQN       0.129000
     17 H5          -2.8840     2.0450     0.1670 ha         1 MQN       0.115000
     18 H6          -4.5020     0.3130    -0.2330 hn         1 MQN       0.451500
     19 H7          -4.1300    -1.3140    -0.2090 hn         1 MQN       0.451500
     20 H8          -1.8290    -2.1070    -0.0590 ha         1 MQN       0.113000
     21 H9           0.6110    -2.7270    -0.1090 ha         1 MQN       0.116000
     22 H10          2.9590    -1.9710    -0.1080 ha         1 MQN       0.119000
@<TRIPOS>BOND
     1     1     2 1   
     2     1    13 1   
     3     1    14 1   
     4     1    15 1   
     5     2     3 ar  
     6     2    12 ar  
     7     3     4 ar  
     8     4     5 ar  
     9     4    10 ar  
    10     5     6 ar  
    11     5    16 1   
    12     6     7 ar  
    13     6    17 1   
    14     7     8 1   
    15     7     9 ar  
    16     8    18 1   
    17     8    19 1   
    18     9    10 ar  
    19     9    20 1   
    20    10    11 ar  
    21    11    12 ar  
    22    11    21 1   
    23    12    22 1   
@<TRIPOS>SUBSTRUCTURE
     1 MQN         1 TEMP              0 ****  ****    0 ROOT
