@<TRIPOS>MOLECULE
MQN
   22    23     1     0     0
SMALL
No Charge or Current Charge


@<TRIPOS>ATOM
      1 CAA          3.9030     0.5770     0.0190 c3         1 MQN      -0.145400
      2 CAI          2.4660     0.0930    -0.0130 ca         1 MQN       0.354300
      3 NAH          1.5130     1.0480     0.0890 nb         1 MQN      -0.661000
      4 CAL          0.2100     0.6740     0.0700 ca         1 MQN       0.238000
      5 CAF         -0.8020     1.6480     0.1730 ca         1 MQN      -0.047000
      6 CAD         -2.1620     1.2830     0.1560 ca         1 MQN      -0.152000
      7 CAJ         -2.5290    -0.0640     0.0360 ca         1 MQN       0.298000
      8 NAB         -3.8500    -0.4190     0.0200 nv         1 MQN      -1.079000
      9 CAG         -1.5390    -1.0490    -0.0660 ca         1 MQN      -0.183000
     10 CAK         -0.1770    -0.6870    -0.0500 ca         1 MQN      -0.039000
     11 CAE          0.8170    -1.6760    -0.1520 ca         1 MQN      -0.075000
     12 CAC          2.1610    -1.2740    -0.1320 ca         1 MQN      -0.154000
     13 H1           4.5860    -0.1720    -0.4000 hc         1 MQN       0.050033
     14 H2           4.0270     1.4980    -0.5640 hc         1 MQN       0.050033
     15 H3           4.2210     0.7820     1.0480 hc         1 MQN       0.050033
     16 H4          -0.5280     2.6950     0.2660 ha         1 MQN       0.129000
     17 H5          -2.9250     2.0530     0.2380 ha         1 MQN       0.115000
     18 H6          -4.5690     0.3000    -0.0480 hn         1 MQN       0.451500
     19 H7          -4.1170    -1.3750    -0.2060 hn         1 MQN       0.451500
     20 H8          -1.8220    -2.0940    -0.1580 ha         1 MQN       0.113000
     21 H9           0.5560    -2.7280    -0.2450 ha         1 MQN       0.116000
     22 H10          2.9570    -2.0100    -0.2070 ha         1 MQN       0.119000
@<TRIPOS>BOND
     1     1     2 1   
     2     1    13 1   
     3     1    14 1   
     4     1    15 1   
     5     2     3 ar  
     6     2    12 ar  
     7     3     4 ar  
     8     4     5 ar  
     9     4    10 ar  
    10     5     6 ar  
    11     5    16 1   
    12     6     7 ar  
    13     6    17 1   
    14     7     8 1   
    15     7     9 ar  
    16     8    18 1   
    17     8    19 1   
    18     9    10 ar  
    19     9    20 1   
    20    10    11 ar  
    21    11    12 ar  
    22    11    21 1   
    23    12    22 1   
@<TRIPOS>SUBSTRUCTURE
     1 MQN         1 TEMP              0 ****  ****    0 ROOT
