@<TRIPOS>MOLECULE
MQO
   25    26     1     0     0
SMALL
No Charge or Current Charge


@<TRIPOS>ATOM
      1 CAA          3.4370     1.7840    -0.0100 c3         1 MQO       0.153900
      2 CAB          1.8760    -3.2300    -0.0600 c3         1 MQO      -0.043800
      3 CAF          1.1740    -1.8800    -0.0370 ca         1 MQO      -0.083300
      4 CAG         -0.2280    -1.8110    -0.0300 ca         1 MQO      -0.060000
      5 CAI         -2.8770     0.8780     0.0150 cc         1 MQO      -0.395200
      6 CAJ          1.9240    -0.6930    -0.0290 ca         1 MQO      -0.148000
      7 CAK         -2.3530    -0.4750    -0.0030 c          1 MQO       0.593900
      8 CAL          1.2750     0.5630    -0.0100 ca         1 MQO       0.083100
      9 CAM         -2.1360     2.0370     0.0260 cd         1 MQO       0.062000
     10 CAN         -0.8830    -0.5610    -0.0120 ca         1 MQO      -0.177600
     11 CAO         -0.1470     0.6300    -0.0010 ca         1 MQO       0.288000
     12 NAH         -0.7330     1.9110     0.0180 na         1 MQO      -0.780000
     13 OAE          1.9970     1.7510    -0.0010 os         1 MQO      -0.364100
     14 HA2          3.7930     2.8220     0.0000 h1         1 MQO       0.043367
     15 HA3          3.8450     1.2770     0.8740 h1         1 MQO       0.043367
     16 HA1          3.8340     1.2980    -0.9100 h1         1 MQO       0.043367
     17 HB2          2.0820    -3.5450    -1.0900 hc         1 MQO       0.043367
     18 HB3          2.8320    -3.1930     0.4760 hc         1 MQO       0.043367
     19 HB1          1.2650    -4.0090     0.4120 hc         1 MQO       0.043367
     20 HAG         -0.8100    -2.7310    -0.0400 ha         1 MQO       0.140000
     21 HAI         -3.9590     0.9270     0.0210 ha         1 MQO       0.208000
     22 HAJ          3.0080    -0.7640    -0.0390 ha         1 MQO       0.117000
     23 HAM         -2.5690     3.0400     0.0400 h4         1 MQO       0.196000
     24 HAH         -0.1190     2.7280     0.0250 hn         1 MQO       0.519000
     25 OAC         -3.0820    -1.4600    -0.0120 o          1 MQO      -0.568100
@<TRIPOS>BOND
     1     1    13 1   
     2     1    14 1   
     3     1    15 1   
     4     1    16 1   
     5     2     3 1   
     6     2    17 1   
     7     2    18 1   
     8     2    19 1   
     9     3     4 ar  
    10     3     6 ar  
    11     4    10 ar  
    12     4    20 1   
    13     5     7 1   
    14     5     9 2   
    15     5    21 1   
    16     6     8 ar  
    17     6    22 1   
    18     7    10 1   
    19     7    25 2   
    20     8    11 ar  
    21     8    13 1   
    22     9    12 1   
    23     9    23 1   
    24    10    11 ar  
    25    11    12 1   
    26    12    24 1   
@<TRIPOS>SUBSTRUCTURE
     1 MQO         1 TEMP              0 ****  ****    0 ROOT
