@<TRIPOS>MOLECULE
MQO
   25    26     1     0     0
SMALL
abcg2


@<TRIPOS>ATOM
      1 CAA          3.3630     1.7470    -0.0450 c3         1 MQO       0.153900
      2 CAB          1.8670    -3.1920    -0.0580 c3         1 MQO      -0.043800
      3 CAF          1.1590    -1.8690    -0.0350 ca         1 MQO      -0.083300
      4 CAG         -0.2120    -1.7830    -0.0090 ca         1 MQO      -0.060000
      5 CAI         -2.8650     0.8760     0.0420 cc         1 MQO      -0.395200
      6 CAJ          1.9200    -0.6830    -0.0410 ca         1 MQO      -0.148000
      7 CAK         -2.3330    -0.4630     0.0400 c          1 MQO       0.593900
      8 CAL          1.3140     0.5510    -0.0250 ca         1 MQO       0.083100
      9 CAM         -2.0510     1.9620     0.0270 cd         1 MQO       0.062000
     10 CAN         -0.8610    -0.5380     0.0070 ca         1 MQO      -0.177600
     11 CAO         -0.0980     0.6300    -0.0040 ca         1 MQO       0.288000
     12 NAH         -0.7120     1.8540     0.0070 na         1 MQO      -0.780000
     13 OAE          1.9480     1.7370    -0.0280 os         1 MQO      -0.364100
     14 HA2          3.6640     2.7910    -0.0440 h1         1 MQO       0.043367
     15 HA3          3.7800     1.2560     0.8370 h1         1 MQO       0.043367
     16 HA1          3.7590     1.2640    -0.9420 h1         1 MQO       0.043367
     17 HB2          2.4870    -3.2920    -0.9510 hc         1 MQO       0.043367
     18 HB3          2.5300    -3.3020     0.8020 hc         1 MQO       0.043367
     19 HB1          1.1620    -4.0210    -0.0460 hc         1 MQO       0.043367
     20 HAG         -0.8190    -2.6790    -0.0010 ha         1 MQO       0.140000
     21 HAI         -3.9370     1.0200     0.0600 ha         1 MQO       0.208000
     22 HAJ          3.0000    -0.7610    -0.0590 ha         1 MQO       0.117000
     23 HAM         -2.4350     2.9720     0.0320 h4         1 MQO       0.196000
     24 HAH         -0.1490     2.6900    -0.0040 hn         1 MQO       0.519000
     25 OAC         -3.0340    -1.4720     0.0620 o          1 MQO      -0.568100
@<TRIPOS>BOND
     1     1    13 1   
     2     1    14 1   
     3     1    15 1   
     4     1    16 1   
     5     2     3 1   
     6     2    17 1   
     7     2    18 1   
     8     2    19 1   
     9     3     4 ar  
    10     3     6 ar  
    11     4    10 ar  
    12     4    20 1   
    13     5     7 1   
    14     5     9 2   
    15     5    21 1   
    16     6     8 ar  
    17     6    22 1   
    18     7    10 1   
    19     7    25 2   
    20     8    11 ar  
    21     8    13 1   
    22     9    12 1   
    23     9    23 1   
    24    10    11 ar  
    25    11    12 1   
    26    12    24 1   
@<TRIPOS>SUBSTRUCTURE
     1 MQO         1 TEMP              0 ****  ****    0 ROOT
