@<TRIPOS>MOLECULE
MQQ
   83    86     1     0     0
SMALL
bcc


@<TRIPOS>ATOM
      1 N3          -0.3600    -4.0280    -1.9270 n          1 MQQ      -0.482800
      2 O6          -1.1360    -6.4020    -3.2510 os         1 MQQ      -0.397600
      3 C2          -0.9250    -5.1410    -1.1850 c6         1 MQQ       0.064000
      4 C3          -1.8130    -5.9730    -2.0950 c6         1 MQQ       0.118400
      5 C4           0.2780    -4.4400    -3.1680 c6         1 MQQ       0.064000
      6 C5          -0.6690    -5.2930    -3.9870 c6         1 MQQ       0.118400
      7 C11         -0.0110    -2.8190    -1.3860 c          1 MQQ       0.797100
      8 O1           0.5800    -1.9690    -2.0410 o          1 MQQ      -0.622100
      9 N1          -0.3170    -2.6260    -0.0710 ns         1 MQQ      -0.564900
     10 CA          -0.3850    -1.3270     0.5400 c3         1 MQQ       0.056700
     11 CB           0.9070    -0.4930     0.4700 c3         1 MQQ      -0.052400
     12 CG           2.1290    -1.3210     0.8320 c3         1 MQQ      -0.174600
     13 SD           3.6000    -0.2990     0.7540 sy         1 MQQ       1.063300
     14 CE           4.8930    -1.3840     1.2940 ca         1 MQQ      -0.266500
     15 C           -1.5520    -0.4990    -0.0180 c          1 MQQ       0.639100
     16 O           -2.1110    -0.7860    -1.0600 o          1 MQQ      -0.576100
     17 O2           3.8440     0.0500    -0.6450 o          1 MQQ      -0.591300
     18 O3           3.4650     0.7860     1.7290 o          1 MQQ      -0.591300
     19 CD1          5.2430    -1.4100     2.6370 ca         1 MQQ      -0.035000
     20 CD2          5.5260    -2.1920     0.3580 ca         1 MQQ      -0.035000
     21 CX1          6.2520    -2.2690     3.0490 ca         1 MQQ      -0.146500
     22 CX2          6.5290    -3.0490     0.7850 ca         1 MQQ      -0.146500
     23 CZ           6.8920    -3.0860     2.1250 ca         1 MQQ      -0.073000
     24 CM          -0.9100     3.1270    -0.3450 c3         1 MQQ      -0.194600
     25 N2          -1.8650     0.5730     0.7330 ns         1 MQQ      -0.581900
     26 CA1         -2.7980     1.6150     0.3500 c3         1 MQQ       0.114700
     27 CB3         -4.1080     1.5260     1.1280 c3         1 MQQ      -0.090400
     28 CG1         -6.1600     0.1850     1.6460 ca         1 MQQ      -0.081300
     29 CDB         -7.3260     0.5520     0.9760 ca         1 MQQ      -0.126000
     30 CDC         -6.2490    -0.1500     2.9960 ca         1 MQQ      -0.126000
     31 CE1         -8.5480     0.5820     1.6350 ca         1 MQQ      -0.126500
     32 CE2         -7.4680    -0.1200     3.6600 ca         1 MQQ      -0.126500
     33 CZ1         -8.6230     0.2450     2.9800 ca         1 MQQ      -0.129000
     34 CB2         -4.8310     0.1920     0.9440 c3         1 MQQ      -0.027100
     35 CT          -2.1300     2.9760     0.5540 c3         1 MQQ      -0.062400
     36 C1           3.6070     4.2390    -2.7010 ca         1 MQQ      -0.075000
     37 C21          3.5700     3.3700    -1.6170 ca         1 MQQ      -0.139500
     38 C31          2.5250     3.4370    -0.7090 ca         1 MQQ      -0.037000
     39 C41          1.5210     4.3770    -0.9110 ca         1 MQQ      -0.268500
     40 C51          1.5420     5.2470    -1.9920 ca         1 MQQ      -0.037000
     41 C6           2.5980     5.1750    -2.8880 ca         1 MQQ      -0.139500
     42 S1           0.1650     4.4370     0.2280 sy         1 MQQ       1.077300
     43 O11         -0.5310     5.7140     0.0750 o          1 MQQ      -0.595300
     44 O21          0.6600     4.0620     1.5520 o          1 MQQ      -0.595300
     45 H21A        -0.1310    -5.7640    -0.7550 h1         1 MQQ       0.053200
     46 H22         -1.5570    -4.8010    -0.3660 h1         1 MQQ       0.053200
     47 H31A        -2.1490    -6.8620    -1.5590 h1         1 MQQ       0.056200
     48 H32         -2.7000    -5.3830    -2.3650 h1         1 MQQ       0.056200
     49 H41          0.5630    -3.5650    -3.7470 h1         1 MQQ       0.053200
     50 H42          1.1930    -5.0060    -2.9500 h1         1 MQQ       0.053200
     51 H51A        -0.1490    -5.6760    -4.8660 h1         1 MQQ       0.056200
     52 H52         -1.5120    -4.6780    -4.3310 h1         1 MQQ       0.056200
     53 HN1         -0.8370    -3.3300     0.4220 hn         1 MQQ       0.306500
     54 HA          -0.5830    -1.5180     1.5980 h1         1 MQQ       0.056700
     55 HB1          1.0300    -0.0640    -0.5220 hc         1 MQQ       0.076700
     56 HB2          0.8130     0.3280     1.1820 hc         1 MQQ       0.076700
     57 HG1          2.0690    -1.7220     1.8450 h1         1 MQQ       0.100700
     58 HG2          2.2880    -2.1430     0.1350 h1         1 MQQ       0.100700
     59 HD1          4.7480    -0.7700     3.3540 ha         1 MQQ       0.157000
     60 HD2          5.2490    -2.1580    -0.6870 ha         1 MQQ       0.157000
     61 HX1          6.5390    -2.2960     4.0910 ha         1 MQQ       0.140000
     62 HX2          7.0310    -3.6850     0.0680 ha         1 MQQ       0.140000
     63 HZ           7.6790    -3.7520     2.4510 ha         1 MQQ       0.136000
     64 HM1         -0.2980     2.2240    -0.3480 h1         1 MQQ       0.100700
     65 HM2         -1.1880     3.3540    -1.3750 h1         1 MQQ       0.100700
     66 HN2         -1.4270     0.6690     1.6370 hn         1 MQQ       0.312500
     67 HA1         -3.0120     1.4750    -0.7120 h1         1 MQQ       0.085700
     68 HB31        -3.9170     1.6990     2.1930 hc         1 MQQ       0.050200
     69 HB32        -4.7560     2.3410     0.7940 hc         1 MQQ       0.050200
     70 HCD1        -7.2760     0.8130    -0.0750 ha         1 MQQ       0.127500
     71 HCD2        -5.3520    -0.4390     3.5320 ha         1 MQQ       0.127500
     72 HE1         -9.4440     0.8650     1.0960 ha         1 MQQ       0.130000
     73 HE2         -7.5170    -0.3860     4.7080 ha         1 MQQ       0.130000
     74 HZ1         -9.5750     0.2630     3.4950 ha         1 MQQ       0.130000
     75 HB21        -4.9700    -0.0020    -0.1220 hc         1 MQQ       0.052700
     76 HB22        -4.2100    -0.6160     1.3360 hc         1 MQQ       0.052700
     77 HT1         -2.8500     3.7670     0.3430 hc         1 MQQ       0.063700
     78 HT2         -1.8510     3.0730     1.6080 hc         1 MQQ       0.063700
     79 H21          4.3510     2.6360    -1.4760 ha         1 MQQ       0.145500
     80 H31          2.5030     2.7680     0.1410 ha         1 MQQ       0.155500
     81 H51          0.7540     5.9740    -2.1370 ha         1 MQQ       0.155500
     82 H6           2.6320     5.8500    -3.7320 ha         1 MQQ       0.145500
     83 H1           4.4270     4.1850    -3.4050 ha         1 MQQ       0.134000
@<TRIPOS>BOND
     1     1     3 1   
     2     1     5 1   
     3     1     7 1   
     4     2     4 1   
     5     2     6 1   
     6     3     4 1   
     7     3    45 1   
     8     3    46 1   
     9     4    47 1   
    10     4    48 1   
    11     5     6 1   
    12     5    49 1   
    13     5    50 1   
    14     6    51 1   
    15     6    52 1   
    16     7     8 2   
    17     7     9 1   
    18     9    10 1   
    19     9    53 1   
    20    10    11 1   
    21    10    15 1   
    22    10    54 1   
    23    11    12 1   
    24    11    55 1   
    25    11    56 1   
    26    12    13 1   
    27    12    57 1   
    28    12    58 1   
    29    13    14 1   
    30    13    17 2   
    31    13    18 2   
    32    14    19 ar  
    33    14    20 ar  
    34    15    16 2   
    35    15    25 1   
    36    19    21 ar  
    37    19    59 1   
    38    20    22 ar  
    39    20    60 1   
    40    21    23 ar  
    41    21    61 1   
    42    22    23 ar  
    43    22    62 1   
    44    23    63 1   
    45    24    35 1   
    46    24    42 1   
    47    24    64 1   
    48    24    65 1   
    49    25    26 1   
    50    25    66 1   
    51    26    27 1   
    52    26    35 1   
    53    26    67 1   
    54    27    34 1   
    55    27    68 1   
    56    27    69 1   
    57    28    29 ar  
    58    28    30 ar  
    59    28    34 1   
    60    29    31 ar  
    61    29    70 1   
    62    30    32 ar  
    63    30    71 1   
    64    31    33 ar  
    65    31    72 1   
    66    32    33 ar  
    67    32    73 1   
    68    33    74 1   
    69    34    75 1   
    70    34    76 1   
    71    35    77 1   
    72    35    78 1   
    73    36    37 ar  
    74    36    41 ar  
    75    36    83 1   
    76    37    38 ar  
    77    37    79 1   
    78    38    39 ar  
    79    38    80 1   
    80    39    40 ar  
    81    39    42 1   
    82    40    41 ar  
    83    40    81 1   
    84    41    82 1   
    85    42    43 2   
    86    42    44 2   
@<TRIPOS>SUBSTRUCTURE
     1 MQQ         1 TEMP              0 ****  ****    0 ROOT
