@<TRIPOS>MOLECULE
MQQ
   83    86     1     0     0
SMALL
No Charge or Current Charge


@<TRIPOS>ATOM
      1 N3           0.1670    -3.6620    -2.4030 n          1 MQQ      -0.415800
      2 O6           0.9630    -6.1590    -3.6180 os         1 MQQ      -0.444000
      3 C2          -0.0580    -4.9780    -1.7140 c6         1 MQQ       0.064000
      4 C3          -0.0890    -6.2220    -2.6410 c6         1 MQQ       0.141600
      5 C4           0.9260    -3.7030    -3.6960 c6         1 MQQ       0.064000
      6 C5           0.8190    -5.0270    -4.4930 c6         1 MQQ       0.141600
      7 C11          0.0190    -2.4320    -1.7290 c          1 MQQ       0.663100
      8 O1           0.3540    -1.3740    -2.2380 o          1 MQQ      -0.622100
      9 N1          -0.5200    -2.5060    -0.4630 ns         1 MQQ      -0.497900
     10 CA          -0.7380    -1.3630     0.4580 c3         1 MQQ       0.056700
     11 CB           0.5680    -0.5720     0.7750 c3         1 MQQ      -0.052400
     12 CG           1.7810    -1.4750     1.1310 c3         1 MQQ      -0.285400
     13 SD           3.2610    -0.5320     1.5650 sy         1 MQQ       1.032500
     14 CE           4.4950    -1.8200     1.8340 ca         1 MQQ      -0.266500
     15 C           -1.9090    -0.4430    -0.0240 c          1 MQQ       0.572100
     16 O           -2.5860    -0.6710    -1.0190 o          1 MQQ      -0.576100
     17 O2           3.6380     0.2430     0.3760 o          1 MQQ      -0.520500
     18 O3           2.9800     0.1300     2.8460 o          1 MQQ      -0.520500
     19 CD1          4.6710    -2.3770     3.1190 ca         1 MQQ      -0.017000
     20 CD2          5.2760    -2.2870     0.7560 ca         1 MQQ      -0.017000
     21 CX1          5.6260    -3.3890     3.3210 ca         1 MQQ      -0.128500
     22 CX2          6.2290    -3.3000     0.9650 ca         1 MQQ      -0.128500
     23 CZ           6.4050    -3.8500     2.2460 ca         1 MQQ      -0.055000
     24 CM          -1.0360     3.1050    -0.5090 c3         1 MQQ      -0.305400
     25 N2          -2.1350     0.6700     0.7640 ns         1 MQQ      -0.514900
     26 CA1         -3.0460     1.7700     0.4310 c3         1 MQQ       0.114700
     27 CB3         -4.2680     1.7920     1.3800 c3         1 MQQ      -0.090400
     28 CG1         -6.3540     0.6100     2.2300 ca         1 MQQ      -0.081300
     29 CDB         -7.5810     1.0610     1.7060 ca         1 MQQ      -0.108000
     30 CDC         -6.2690     0.2630     3.5920 ca         1 MQQ      -0.108000
     31 CE1         -8.7120     1.1610     2.5350 ca         1 MQQ      -0.108500
     32 CE2         -7.4000     0.3630     4.4210 ca         1 MQQ      -0.108500
     33 CZ1         -8.6220     0.8120     3.8920 ca         1 MQQ      -0.111000
     34 CB2         -5.1270     0.5070     1.3340 c3         1 MQQ      -0.027100
     35 CT          -2.2710     3.1090     0.4350 c3         1 MQQ      -0.062400
     36 C1           3.4890     3.6090    -3.2190 ca         1 MQQ      -0.057000
     37 C21          3.4760     3.1630    -1.8870 ca         1 MQQ      -0.121500
     38 C31          2.3960     3.4820    -1.0450 ca         1 MQQ      -0.019000
     39 C41          1.3210     4.2530    -1.5380 ca         1 MQQ      -0.268500
     40 C51          1.3330     4.6950    -2.8780 ca         1 MQQ      -0.019000
     41 C6           2.4190     4.3740    -3.7130 ca         1 MQQ      -0.121500
     42 S1          -0.0750     4.6330    -0.4600 sy         1 MQQ       1.046500
     43 O11         -0.8940     5.6810    -1.0830 o          1 MQQ      -0.524500
     44 O21          0.4230     4.7710     0.9150 o          1 MQQ      -0.524500
     45 H21A         0.7420    -5.1190    -0.9720 h1         1 MQQ       0.053200
     46 H22         -1.0090    -4.9520    -1.1650 h1         1 MQQ       0.053200
     47 H31A         0.0230    -7.1370    -2.0430 h1         1 MQQ       0.056200
     48 H32         -1.0580    -6.2750    -3.1590 h1         1 MQQ       0.056200
     49 H41          0.5860    -2.8830    -4.3440 h1         1 MQQ       0.053200
     50 H42          1.9860    -3.5160    -3.4750 h1         1 MQQ       0.053200
     51 H51A         1.6000    -5.0630    -5.2660 h1         1 MQQ       0.056200
     52 H52         -0.1570    -5.0830    -4.9970 h1         1 MQQ       0.056200
     53 HN1         -0.7790    -3.4290    -0.1430 hn         1 MQQ       0.306500
     54 HA          -1.0800    -1.7940     1.4080 h1         1 MQQ       0.056700
     55 HB1          0.8270     0.0580    -0.0850 hc         1 MQQ       0.076700
     56 HB2          0.3800     0.1110     1.6130 hc         1 MQQ       0.076700
     57 HG1          1.5490    -2.1150     1.9890 h1         1 MQQ       0.100700
     58 HG2          2.0560    -2.1060     0.2790 h1         1 MQQ       0.100700
     59 HD1          4.0720    -2.0330     3.9610 ha         1 MQQ       0.139000
     60 HD2          5.1480    -1.8720    -0.2430 ha         1 MQQ       0.139000
     61 HX1          5.7610    -3.8170     4.3110 ha         1 MQQ       0.122000
     62 HX2          6.8300    -3.6580     0.1330 ha         1 MQQ       0.122000
     63 HZ           7.1430    -4.6340     2.4050 ha         1 MQQ       0.118000
     64 HM1         -0.3410     2.3060    -0.2310 h1         1 MQQ       0.100700
     65 HM2         -1.3460     2.9560    -1.5490 h1         1 MQQ       0.100700
     66 HN2         -1.5630     0.7670     1.5930 hn         1 MQQ       0.312500
     67 HA1         -3.4240     1.6200    -0.5910 h1         1 MQQ       0.085700
     68 HB31        -3.9260     1.9580     2.4090 hc         1 MQQ       0.050200
     69 HB32        -4.9040     2.6460     1.1170 hc         1 MQQ       0.050200
     70 HCD1        -7.6590     1.3370     0.6560 ha         1 MQQ       0.109500
     71 HCD2        -5.3260    -0.0820     4.0090 ha         1 MQQ       0.109500
     72 HE1         -9.6580     1.5100     2.1240 ha         1 MQQ       0.112000
     73 HE2         -7.3290     0.0940     5.4730 ha         1 MQQ       0.112000
     74 HZ1         -9.4980     0.8890     4.5340 ha         1 MQQ       0.112000
     75 HB21        -5.4300     0.3140     0.2980 hc         1 MQQ       0.052700
     76 HB22        -4.5180    -0.3540     1.6390 hc         1 MQQ       0.052700
     77 HT1         -2.9510     3.9180     0.1390 hc         1 MQQ       0.063700
     78 HT2         -1.9460     3.3290     1.4600 hc         1 MQQ       0.063700
     79 H21          4.3010     2.5660    -1.5050 ha         1 MQQ       0.127500
     80 H31          2.3980     3.1240    -0.0170 ha         1 MQQ       0.137500
     81 H51          0.5090     5.2830    -3.2780 ha         1 MQQ       0.137500
     82 H6           2.4280     4.7160    -4.7450 ha         1 MQQ       0.127500
     83 H1           4.3260     3.3600    -3.8680 ha         1 MQQ       0.116000
@<TRIPOS>BOND
     1     1     3 1   
     2     1     5 1   
     3     1     7 1   
     4     2     4 1   
     5     2     6 1   
     6     3     4 1   
     7     3    45 1   
     8     3    46 1   
     9     4    47 1   
    10     4    48 1   
    11     5     6 1   
    12     5    49 1   
    13     5    50 1   
    14     6    51 1   
    15     6    52 1   
    16     7     8 2   
    17     7     9 1   
    18     9    10 1   
    19     9    53 1   
    20    10    11 1   
    21    10    15 1   
    22    10    54 1   
    23    11    12 1   
    24    11    55 1   
    25    11    56 1   
    26    12    13 1   
    27    12    57 1   
    28    12    58 1   
    29    13    14 1   
    30    13    17 2   
    31    13    18 2   
    32    14    19 ar  
    33    14    20 ar  
    34    15    16 2   
    35    15    25 1   
    36    19    21 ar  
    37    19    59 1   
    38    20    22 ar  
    39    20    60 1   
    40    21    23 ar  
    41    21    61 1   
    42    22    23 ar  
    43    22    62 1   
    44    23    63 1   
    45    24    35 1   
    46    24    42 1   
    47    24    64 1   
    48    24    65 1   
    49    25    26 1   
    50    25    66 1   
    51    26    27 1   
    52    26    35 1   
    53    26    67 1   
    54    27    34 1   
    55    27    68 1   
    56    27    69 1   
    57    28    29 ar  
    58    28    30 ar  
    59    28    34 1   
    60    29    31 ar  
    61    29    70 1   
    62    30    32 ar  
    63    30    71 1   
    64    31    33 ar  
    65    31    72 1   
    66    32    33 ar  
    67    32    73 1   
    68    33    74 1   
    69    34    75 1   
    70    34    76 1   
    71    35    77 1   
    72    35    78 1   
    73    36    37 ar  
    74    36    41 ar  
    75    36    83 1   
    76    37    38 ar  
    77    37    79 1   
    78    38    39 ar  
    79    38    80 1   
    80    39    40 ar  
    81    39    42 1   
    82    40    41 ar  
    83    40    81 1   
    84    41    82 1   
    85    42    43 2   
    86    42    44 2   
@<TRIPOS>SUBSTRUCTURE
     1 MQQ         1 TEMP              0 ****  ****    0 ROOT
