@<TRIPOS>MOLECULE
MQR
   36    38     1     0     0
SMALL
No Charge or Current Charge


@<TRIPOS>ATOM
      1 O1           1.5110    -2.1930    -0.0390 o          1 MQR      -0.591100
      2 C1          -1.1520     0.1250     0.6010 ca         1 MQR      -0.048000
      3 C2          -0.4490    -0.8490    -0.1430 ca         1 MQR      -0.130600
      4 C3          -1.1730    -1.6830    -1.0180 ca         1 MQR      -0.067000
      5 C4          -2.5580    -1.5180    -1.1790 ca         1 MQR      -0.081000
      6 C5          -2.5400     0.3050     0.4540 ca         1 MQR       0.213000
      7 C6          -3.2600    -0.5340    -0.4620 ca         1 MQR       0.231000
      8 N1          -4.6030    -0.4040    -0.6450 nb         1 MQR      -0.624000
      9 C7          -5.2200     0.5610     0.0890 ca         1 MQR       0.301900
     10 C8          -4.5110     1.3860     0.9950 ca         1 MQR       0.295900
     11 N2          -3.1700     1.2650     1.1850 nb         1 MQR      -0.620000
     12 C9           1.0390    -1.0640     0.0340 c          1 MQR       0.611700
     13 C10          2.6460     1.7480    -1.2790 c6         1 MQR      -0.100400
     14 C11          1.6210     1.4030    -0.1720 c6         1 MQR       0.098000
     15 N3           1.8530     0.0390     0.3840 n          1 MQR      -0.396800
     16 C12          3.2430    -0.1540     0.8840 c6         1 MQR       0.091000
     17 C13          4.3020     0.1400    -0.2100 c6         1 MQR      -0.087700
     18 C14          4.0970     1.5660    -0.7800 c6         1 MQR      -0.072400
     19 C15          5.7440    -0.0610     0.3250 c3         1 MQR      -0.085100
     20 H2          -0.6590    -2.4560    -1.5860 ha         1 MQR       0.133000
     21 H3          -3.0970    -2.1630    -1.8680 ha         1 MQR       0.138000
     22 H4          -6.2940     0.6750    -0.0490 h4         1 MQR       0.031100
     23 H5          -5.0260     2.1520     1.5730 h4         1 MQR       0.031100
     24 H6           2.4720     1.1020    -2.1510 hc         1 MQR       0.049200
     25 H7           2.4920     2.7810    -1.6200 hc         1 MQR       0.049200
     26 H8           1.6980     2.1380     0.6420 h1         1 MQR       0.055700
     27 H9           0.6150     1.4930    -0.6020 h1         1 MQR       0.055700
     28 H10          3.4050     0.5210     1.7370 h1         1 MQR       0.062200
     29 H11          3.3750    -1.1780     1.2630 h1         1 MQR       0.062200
     30 H12          4.1680    -0.5870    -1.0240 hc         1 MQR       0.060700
     31 H13          4.8000     1.7500    -1.6050 hc         1 MQR       0.042700
     32 H14          4.3170     2.3150    -0.0060 hc         1 MQR       0.042700
     33 H15          5.8900    -1.0830     0.6940 hc         1 MQR       0.036367
     34 H16          6.4860     0.1150    -0.4630 hc         1 MQR       0.036367
     35 H17          5.9630     0.6270     1.1500 hc         1 MQR       0.036367
     36 H1          -0.6250     0.7470     1.3200 ha         1 MQR       0.140000
@<TRIPOS>BOND
     1     1    12 2   
     2     2     3 ar  
     3     2     6 ar  
     4     2    36 1   
     5     3     4 ar  
     6     3    12 1   
     7     4     5 ar  
     8     4    20 1   
     9     5     7 ar  
    10     5    21 1   
    11     6     7 ar  
    12     6    11 ar  
    13     7     8 ar  
    14     8     9 ar  
    15     9    10 ar  
    16     9    22 1   
    17    10    11 ar  
    18    10    23 1   
    19    12    15 1   
    20    13    14 1   
    21    13    18 1   
    22    13    24 1   
    23    13    25 1   
    24    14    15 1   
    25    14    26 1   
    26    14    27 1   
    27    15    16 1   
    28    16    17 1   
    29    16    28 1   
    30    16    29 1   
    31    17    18 1   
    32    17    19 1   
    33    17    30 1   
    34    18    31 1   
    35    18    32 1   
    36    19    33 1   
    37    19    34 1   
    38    19    35 1   
@<TRIPOS>SUBSTRUCTURE
     1 MQR         1 TEMP              0 ****  ****    0 ROOT
