@<TRIPOS>MOLECULE
MQR
   36    38     1     0     0
SMALL
abcg2


@<TRIPOS>ATOM
      1 O1           1.3820    -2.1020     0.5020 o          1 MQR      -0.591100
      2 C1          -1.1680     0.1290     0.8050 ca         1 MQR      -0.048000
      3 C2          -0.3950    -0.6650    -0.0010 ca         1 MQR      -0.130600
      4 C3          -0.9790    -1.3600    -1.0860 ca         1 MQR      -0.067000
      5 C4          -2.3090    -1.2240    -1.3680 ca         1 MQR      -0.081000
      6 C5          -2.5480     0.2640     0.5500 ca         1 MQR       0.213000
      7 C6          -3.1240    -0.4130    -0.5510 ca         1 MQR       0.231000
      8 N1          -4.4450    -0.2950    -0.8250 nb         1 MQR      -0.624000
      9 C7          -5.1460     0.4610    -0.0290 ca         1 MQR       0.301900
     10 C8          -4.5690     1.1350     1.0760 ca         1 MQR       0.295900
     11 N2          -3.3020     1.0420     1.3610 nb         1 MQR      -0.620000
     12 C9           1.0410    -0.9380     0.3300 c          1 MQR       0.611700
     13 C10          2.5650     1.6490    -1.3000 c6         1 MQR      -0.100400
     14 C11          1.6400     1.4310    -0.1080 c6         1 MQR       0.098000
     15 N3           1.8680     0.1140     0.4720 n          1 MQR      -0.396800
     16 C12          3.2440    -0.0960     0.8980 c6         1 MQR       0.091000
     17 C13          4.2220     0.0510    -0.2650 c6         1 MQR      -0.087700
     18 C14          4.0230     1.4150    -0.9240 c6         1 MQR      -0.072400
     19 C15          5.6540    -0.1450     0.2120 c3         1 MQR      -0.085100
     20 H2          -0.3580    -1.9940    -1.7060 ha         1 MQR       0.133000
     21 H3          -2.7590    -1.7360    -2.2090 ha         1 MQR       0.138000
     22 H4          -6.2060     0.5670    -0.2310 h4         1 MQR       0.031100
     23 H5          -5.1900     1.7540     1.7130 h4         1 MQR       0.031100
     24 H6           2.2700     0.9690    -2.1060 hc         1 MQR       0.049200
     25 H7           2.4220     2.6640    -1.6740 hc         1 MQR       0.049200
     26 H8           1.8290     2.1850     0.6610 h1         1 MQR       0.055700
     27 H9           0.6030     1.5380    -0.4140 h1         1 MQR       0.055700
     28 H10          3.4710     0.6570     1.6610 h1         1 MQR       0.062200
     29 H11          3.3330    -1.0740     1.3650 h1         1 MQR       0.062200
     30 H12          3.9900    -0.7300    -0.9990 hc         1 MQR       0.060700
     31 H13          4.6620     1.5010    -1.8060 hc         1 MQR       0.042700
     32 H14          4.3480     2.1950    -0.2260 hc         1 MQR       0.042700
     33 H15          5.8000    -1.1390     0.6370 hc         1 MQR       0.036367
     34 H16          6.3580    -0.0320    -0.6140 hc         1 MQR       0.036367
     35 H17          5.9210     0.5870     0.9770 hc         1 MQR       0.036367
     36 H1          -0.7460     0.6600     1.6500 ha         1 MQR       0.140000
@<TRIPOS>BOND
     1     1    12 2   
     2     2     3 ar  
     3     2     6 ar  
     4     2    36 1   
     5     3     4 ar  
     6     3    12 1   
     7     4     5 ar  
     8     4    20 1   
     9     5     7 ar  
    10     5    21 1   
    11     6     7 ar  
    12     6    11 ar  
    13     7     8 ar  
    14     8     9 ar  
    15     9    10 ar  
    16     9    22 1   
    17    10    11 ar  
    18    10    23 1   
    19    12    15 1   
    20    13    14 1   
    21    13    18 1   
    22    13    24 1   
    23    13    25 1   
    24    14    15 1   
    25    14    26 1   
    26    14    27 1   
    27    15    16 1   
    28    16    17 1   
    29    16    28 1   
    30    16    29 1   
    31    17    18 1   
    32    17    19 1   
    33    17    30 1   
    34    18    31 1   
    35    18    32 1   
    36    19    33 1   
    37    19    34 1   
    38    19    35 1   
@<TRIPOS>SUBSTRUCTURE
     1 MQR         1 TEMP              0 ****  ****    0 ROOT
