@<TRIPOS>MOLECULE
MQS
   36    38     1     0     0
SMALL
abcg2


@<TRIPOS>ATOM
      1 C1          -1.1610    -0.1840     0.8020 ca         1 MQS      -0.049000
      2 C2          -0.3890     0.6750     0.0630 ca         1 MQS      -0.129600
      3 C3          -0.9750     1.4550    -0.9620 ca         1 MQS      -0.066000
      4 C4          -2.3050     1.3390    -1.2530 ca         1 MQS      -0.081000
      5 C5          -2.5400    -0.3010     0.5370 ca         1 MQS       0.214000
      6 C6          -3.1180     0.4610    -0.5050 ca         1 MQS       0.232000
      7 N1          -4.4380     0.3620    -0.7880 nb         1 MQS      -0.624000
      8 C7          -5.1370    -0.4590    -0.0580 ca         1 MQS       0.301900
      9 C8          -4.5580    -1.2200     0.9890 ca         1 MQS       0.295900
     10 N2          -3.2920    -1.1450     1.2820 nb         1 MQS      -0.621000
     11 C9           1.0460     0.9210     0.4160 c          1 MQS       0.612700
     12 C10          2.5830    -1.5650    -1.3830 c6         1 MQS      -0.100400
     13 C11          1.6430    -1.4120    -0.1930 c6         1 MQS       0.099000
     14 N3           1.8750    -0.1370     0.4730 n          1 MQS      -0.397800
     15 C12          3.2470     0.0350     0.9260 c6         1 MQS       0.091000
     16 C13          4.2410    -0.0560    -0.2280 c6         1 MQS      -0.086700
     17 C14          4.0380    -1.3730    -0.9730 c6         1 MQS      -0.072400
     18 O1           1.3850     2.0680     0.6830 o          1 MQS      -0.592100
     19 C15          5.6670     0.0960     0.2820 c3         1 MQS      -0.085100
     20 H1          -0.7360    -0.7800     1.6010 ha         1 MQS       0.140000
     21 H2          -0.3560     2.1400    -1.5260 ha         1 MQS       0.133000
     22 H3          -2.7570     1.9180    -2.0490 ha         1 MQS       0.138000
     23 H4          -6.1960    -0.5530    -0.2680 h4         1 MQS       0.031100
     24 H5          -5.1780    -1.8910     1.5710 h4         1 MQS       0.031100
     25 H7           2.3100    -0.8310    -2.1470 hc         1 MQS       0.049700
     26 H8           0.6100    -1.4880    -0.5200 h1         1 MQS       0.054700
     27 H9           1.8130    -2.2160     0.5290 h1         1 MQS       0.054700
     28 H10          3.3380     0.9860     1.4480 h1         1 MQS       0.061700
     29 H11          3.4580    -0.7590     1.6520 h1         1 MQS       0.061700
     30 H12          4.0280     0.7690    -0.9190 hc         1 MQS       0.059700
     31 H13          4.3470    -2.2020    -0.3240 hc         1 MQS       0.042700
     32 H14          4.6880    -1.4100    -1.8510 hc         1 MQS       0.042700
     33 H15          5.9060    -0.6710     1.0220 hc         1 MQS       0.036367
     34 H16          6.3850     0.0040    -0.5340 hc         1 MQS       0.036367
     35 H17          5.8220     1.0690     0.7520 hc         1 MQS       0.036367
     36 H6           2.4340    -2.5540    -1.8230 hc         1 MQS       0.049700
@<TRIPOS>BOND
     1     1     2 ar  
     2     1     5 ar  
     3     1    20 1   
     4     2     3 ar  
     5     2    11 1   
     6     3     4 ar  
     7     3    21 1   
     8     4     6 ar  
     9     4    22 1   
    10     5     6 ar  
    11     5    10 ar  
    12     6     7 ar  
    13     7     8 ar  
    14     8     9 ar  
    15     8    23 1   
    16     9    10 ar  
    17     9    24 1   
    18    11    14 1   
    19    11    18 2   
    20    12    13 1   
    21    12    17 1   
    22    12    25 1   
    23    12    36 1   
    24    13    14 1   
    25    13    26 1   
    26    13    27 1   
    27    14    15 1   
    28    15    16 1   
    29    15    28 1   
    30    15    29 1   
    31    16    17 1   
    32    16    19 1   
    33    16    30 1   
    34    17    31 1   
    35    17    32 1   
    36    19    33 1   
    37    19    34 1   
    38    19    35 1   
@<TRIPOS>SUBSTRUCTURE
     1 MQS         1 TEMP              0 ****  ****    0 ROOT
