@<TRIPOS>MOLECULE
MQS
   36    38     1     0     0
SMALL
No Charge or Current Charge


@<TRIPOS>ATOM
      1 C1          -1.1460    -0.1610     0.6060 ca         1 MQS      -0.049000
      2 C2          -0.4380     0.8560    -0.0730 ca         1 MQS      -0.129600
      3 C3          -1.1550     1.7440    -0.8980 ca         1 MQS      -0.066000
      4 C4          -2.5400     1.5920    -1.0750 ca         1 MQS      -0.081000
      5 C5          -2.5340    -0.3280     0.4420 ca         1 MQS       0.214000
      6 C6          -3.2480     0.5670    -0.4240 ca         1 MQS       0.232000
      7 N1          -4.5900     0.4530    -0.6210 nb         1 MQS      -0.624000
      8 C7          -5.2120    -0.5550     0.0490 ca         1 MQS       0.301900
      9 C8          -4.5100    -1.4360     0.9050 ca         1 MQS       0.295900
     10 N2          -3.1690    -1.3310     1.1090 nb         1 MQS      -0.621000
     11 C9           1.0500     1.0560     0.1240 c          1 MQS       0.612700
     12 C10          2.6580    -1.6730    -1.3520 c6         1 MQS      -0.100400
     13 C11          1.6280    -1.3950    -0.2310 c6         1 MQS       0.099000
     14 N3           1.8600    -0.0680     0.4100 n          1 MQS      -0.397800
     15 C12          3.2480     0.0900     0.9270 c6         1 MQS       0.091000
     16 C13          4.3120    -0.1380    -0.1780 c6         1 MQS      -0.086700
     17 C14          4.1070    -1.5260    -0.8360 c6         1 MQS      -0.072400
     18 O1           1.5240     2.1860     0.1230 o          1 MQS      -0.592100
     19 C15          5.7520     0.0260     0.3760 c3         1 MQS      -0.085100
     20 H1          -0.6240    -0.8280     1.2880 ha         1 MQS       0.140000
     21 H2          -0.6370     2.5500    -1.4140 ha         1 MQS       0.133000
     22 H3          -3.0750     2.2800    -1.7250 ha         1 MQS       0.138000
     23 H4          -6.2860    -0.6570    -0.1000 h4         1 MQS       0.031100
     24 H5          -5.0290    -2.2350     1.4330 h4         1 MQS       0.031100
     25 H7           2.4900    -0.9740    -2.1830 hc         1 MQS       0.049700
     26 H8           0.6250    -1.4560    -0.6710 h1         1 MQS       0.054700
     27 H9           1.6990    -2.1790     0.5360 h1         1 MQS       0.054700
     28 H10          3.3800     1.0880     1.3690 h1         1 MQS       0.061700
     29 H11          3.4040    -0.6370     1.7370 h1         1 MQS       0.061700
     30 H12          4.1840     0.6380    -0.9460 hc         1 MQS       0.059700
     31 H13          4.3220    -2.3220    -0.1080 hc         1 MQS       0.042700
     32 H14          4.8140    -1.6600    -1.6670 hc         1 MQS       0.042700
     33 H15          5.9650    -0.7130     1.1580 hc         1 MQS       0.036367
     34 H16          6.4980    -0.1020    -0.4180 hc         1 MQS       0.036367
     35 H17          5.8980     1.0230     0.8080 hc         1 MQS       0.036367
     36 H6           2.5040    -2.6820    -1.7570 hc         1 MQS       0.049700
@<TRIPOS>BOND
     1     1     2 ar  
     2     1     5 ar  
     3     1    20 1   
     4     2     3 ar  
     5     2    11 1   
     6     3     4 ar  
     7     3    21 1   
     8     4     6 ar  
     9     4    22 1   
    10     5     6 ar  
    11     5    10 ar  
    12     6     7 ar  
    13     7     8 ar  
    14     8     9 ar  
    15     8    23 1   
    16     9    10 ar  
    17     9    24 1   
    18    11    14 1   
    19    11    18 2   
    20    12    13 1   
    21    12    17 1   
    22    12    25 1   
    23    12    36 1   
    24    13    14 1   
    25    13    26 1   
    26    13    27 1   
    27    14    15 1   
    28    15    16 1   
    29    15    28 1   
    30    15    29 1   
    31    16    17 1   
    32    16    19 1   
    33    16    30 1   
    34    17    31 1   
    35    17    32 1   
    36    19    33 1   
    37    19    34 1   
    38    19    35 1   
@<TRIPOS>SUBSTRUCTURE
     1 MQS         1 TEMP              0 ****  ****    0 ROOT
