@<TRIPOS>MOLECULE
MQT
   47    48     1     0     0
SMALL
No Charge or Current Charge


@<TRIPOS>ATOM
      1 C1          -2.8640    -0.2880     1.0010 c6         1 MQT       0.386300
      2 O1          -3.7300    -1.4350     1.0480 os         1 MQT      -0.430000
      3 C2          -1.3690    -0.6900     0.7690 c6         1 MQT       0.150300
      4 O2          -1.1960    -1.4560    -0.4590 os         1 MQT      -0.403100
      5 C3          -0.5110     0.6110     0.7110 c6         1 MQT       0.170300
      6 O3           0.8770     0.2650     0.4860 os         1 MQT      -0.416100
      7 C4          -1.0630     1.5900    -0.3850 c6         1 MQT       0.123300
      8 O4          -0.8510     1.0390    -1.7030 oh         1 MQT      -0.677000
      9 C5          -2.5780     1.8450    -0.0970 c6         1 MQT       0.152300
     10 O5          -3.3000     0.5880    -0.0590 os         1 MQT      -0.451000
     11 C6          -3.2500     2.7860    -1.1510 c3         1 MQT       0.168600
     12 O6          -4.6340     3.0640    -0.8600 oh         1 MQT      -0.710000
     13 OAA          1.6780     2.3330     1.0370 o          1 MQT      -0.501000
     14 CAB          1.8740     1.1950     0.6290 c          1 MQT       0.613700
     15 CAC          3.2500     0.6630     0.3060 ca         1 MQT      -0.151600
     16 CAD          4.3800     1.4980     0.4530 ca         1 MQT      -0.047000
     17 CAE          5.6670     1.0190     0.1560 ca         1 MQT      -0.131500
     18 CAF          5.8500    -0.3000    -0.2960 ca         1 MQT      -0.040300
     19 CAG          7.2440    -0.8180    -0.6130 c3         1 MQT      -0.053800
     20 CAH          4.7300    -1.1370    -0.4430 ca         1 MQT      -0.131500
     21 CAI          3.4400    -0.6630    -0.1470 ca         1 MQT      -0.047000
     22 CAN         -1.3950    -2.8120    -0.4780 c          1 MQT       0.605100
     23 OAO         -1.5570    -3.5050     0.5170 o          1 MQT      -0.491000
     24 CAP         -1.2010    -3.3800    -1.8760 c3         1 MQT      -0.154100
     25 CAS         -5.1010    -1.1840     1.3980 c3         1 MQT       0.149900
     26 H1          -2.9390     0.2440     1.9600 h2         1 MQT       0.021700
     27 H2          -1.0190    -1.2850     1.6250 h1         1 MQT       0.092700
     28 H3          -0.5840     1.1050     1.6920 h1         1 MQT       0.070700
     29 H4          -0.5400     2.5530    -0.3000 h1         1 MQT       0.051700
     30 HO4         -0.9920     0.0660    -1.6060 ho         1 MQT       0.498000
     31 H5          -2.6740     2.3330     0.8850 h1         1 MQT       0.047700
     32 H6          -2.6790     3.7230    -1.1850 h1         1 MQT       0.030700
     33 H6A         -3.1640     2.3160    -2.1410 h1         1 MQT       0.030700
     34 HO6         -4.9880     3.5850    -1.6190 ho         1 MQT       0.505000
     35 HAD          4.2630     2.5240     0.8000 ha         1 MQT       0.133500
     36 HAE          6.5250     1.6770     0.2780 ha         1 MQT       0.117000
     37 HAG          7.7040    -1.2680     0.2740 hc         1 MQT       0.047367
     38 HAGA         7.2170    -1.5800    -1.4010 hc         1 MQT       0.047367
     39 HAGB         7.9010    -0.0110    -0.9600 hc         1 MQT       0.047367
     40 HAH          4.8570    -2.1610    -0.7880 ha         1 MQT       0.117000
     41 HAI          2.5940    -1.3360    -0.2740 ha         1 MQT       0.133500
     42 HAP         -0.2520    -3.0090    -2.2790 hc         1 MQT       0.068700
     43 HAPA        -1.2510    -4.4740    -1.8970 hc         1 MQT       0.068700
     44 HAPB        -1.9350    -2.9220    -2.5470 hc         1 MQT       0.068700
     45 HAS         -5.5820    -0.5270     0.6620 h1         1 MQT       0.038700
     46 HASA        -5.6640    -2.1250     1.4320 h1         1 MQT       0.038700
     47 HASB        -5.1710    -0.7080     2.3850 h1         1 MQT       0.038700
@<TRIPOS>BOND
     1     1     2 1   
     2     1     3 1   
     3     1    10 1   
     4     1    26 1   
     5     2    25 1   
     6     3     4 1   
     7     3     5 1   
     8     3    27 1   
     9     4    22 1   
    10     5     6 1   
    11     5     7 1   
    12     5    28 1   
    13     6    14 1   
    14     7     8 1   
    15     7     9 1   
    16     7    29 1   
    17     8    30 1   
    18     9    10 1   
    19     9    11 1   
    20     9    31 1   
    21    11    12 1   
    22    11    32 1   
    23    11    33 1   
    24    12    34 1   
    25    13    14 2   
    26    14    15 1   
    27    15    16 ar  
    28    15    21 ar  
    29    16    17 ar  
    30    16    35 1   
    31    17    18 ar  
    32    17    36 1   
    33    18    19 1   
    34    18    20 ar  
    35    19    37 1   
    36    19    38 1   
    37    19    39 1   
    38    20    21 ar  
    39    20    40 1   
    40    21    41 1   
    41    22    23 2   
    42    22    24 1   
    43    24    42 1   
    44    24    43 1   
    45    24    44 1   
    46    25    45 1   
    47    25    46 1   
    48    25    47 1   
@<TRIPOS>SUBSTRUCTURE
     1 MQT         1 TEMP              0 ****  ****    0 ROOT
