@<TRIPOS>MOLECULE
MQT
   47    48     1     0     0
SMALL
abcg2


@<TRIPOS>ATOM
      1 C1          -2.8810    -0.2080     0.9240 c6         1 MQT       0.386300
      2 O1          -3.6400    -1.3500     0.9260 os         1 MQT      -0.430000
      3 C2          -1.4120    -0.6000     0.7960 c6         1 MQT       0.150300
      4 O2          -1.2460    -1.3930    -0.3680 os         1 MQT      -0.403100
      5 C3          -0.5760     0.6660     0.6690 c6         1 MQT       0.170300
      6 O3           0.7570     0.2490     0.4140 os         1 MQT      -0.416100
      7 C4          -1.0860     1.6320    -0.4010 c6         1 MQT       0.123300
      8 O4          -0.7990     1.1210    -1.6750 oh         1 MQT      -0.677000
      9 C5          -2.5880     1.8390    -0.1700 c6         1 MQT       0.152300
     10 O5          -3.2670     0.6020    -0.1520 os         1 MQT      -0.451000
     11 C6          -3.2040     2.7150    -1.2370 c3         1 MQT       0.168600
     12 O6          -4.5210     3.0350    -0.8600 oh         1 MQT      -0.710000
     13 OAA          1.6130     2.1190     1.2910 o          1 MQT      -0.501000
     14 CAB          1.7610     1.0530     0.7430 c          1 MQT       0.613700
     15 CAC          3.0770     0.4930     0.3630 ca         1 MQT      -0.151600
     16 CAD          4.2280     1.1950     0.7200 ca         1 MQT      -0.047000
     17 CAE          5.4770     0.7130     0.3750 ca         1 MQT      -0.131500
     18 CAF          5.6160    -0.4790    -0.3380 ca         1 MQT      -0.040300
     19 CAG          6.9760    -0.9990    -0.6940 c3         1 MQT      -0.053800
     20 CAH          4.4610    -1.1720    -0.6940 ca         1 MQT      -0.131500
     21 CAI          3.2060    -0.6980    -0.3490 ca         1 MQT      -0.047000
     22 CAN         -0.9520    -2.6870    -0.2510 c          1 MQT       0.605100
     23 OAO         -0.7990    -3.2550     0.7990 o          1 MQT      -0.491000
     24 CAP         -0.8240    -3.3240    -1.6020 c3         1 MQT      -0.154100
     25 CAS         -4.9960    -1.1560     1.2880 c3         1 MQT       0.149900
     26 H1          -3.0030     0.3570     1.8690 h2         1 MQT       0.021700
     27 H2          -1.1020    -1.1450     1.6900 h1         1 MQT       0.092700
     28 H3          -0.6320     1.1820     1.6340 h1         1 MQT       0.070700
     29 H4          -0.5980     2.6000    -0.2420 h1         1 MQT       0.051700
     30 HO4         -0.6070     1.8570    -2.2630 ho         1 MQT       0.498000
     31 H5          -2.7050     2.3480     0.8020 h1         1 MQT       0.047700
     32 H6          -2.5800     3.6130    -1.3350 h1         1 MQT       0.030700
     33 H6A         -3.1750     2.1930    -2.2010 h1         1 MQT       0.030700
     34 HO6         -4.8960     3.5980    -1.5430 ho         1 MQT       0.505000
     35 HAD          4.1470     2.1230     1.2700 ha         1 MQT       0.133500
     36 HAE          6.3600     1.2730     0.6580 ha         1 MQT       0.117000
     37 HAG          7.4620    -1.4390     0.1790 hc         1 MQT       0.047367
     38 HAGA         6.9240    -1.7660    -1.4640 hc         1 MQT       0.047367
     39 HAGB         7.6240    -0.1990    -1.0520 hc         1 MQT       0.047367
     40 HAH          4.5420    -2.0950    -1.2550 ha         1 MQT       0.117000
     41 HAI          2.3310    -1.2600    -0.6480 ha         1 MQT       0.133500
     42 HAP         -0.0410    -2.8330    -2.1810 hc         1 MQT       0.068700
     43 HAPA        -0.5830    -4.3790    -1.5040 hc         1 MQT       0.068700
     44 HAPB        -1.7520    -3.2200    -2.1640 hc         1 MQT       0.068700
     45 HAS         -5.5610    -0.6350     0.5130 h1         1 MQT       0.038700
     46 HASA        -5.4340    -2.1420     1.4350 h1         1 MQT       0.038700
     47 HASB        -5.0830    -0.5930     2.2220 h1         1 MQT       0.038700
@<TRIPOS>BOND
     1     1     2 1   
     2     1     3 1   
     3     1    10 1   
     4     1    26 1   
     5     2    25 1   
     6     3     4 1   
     7     3     5 1   
     8     3    27 1   
     9     4    22 1   
    10     5     6 1   
    11     5     7 1   
    12     5    28 1   
    13     6    14 1   
    14     7     8 1   
    15     7     9 1   
    16     7    29 1   
    17     8    30 1   
    18     9    10 1   
    19     9    11 1   
    20     9    31 1   
    21    11    12 1   
    22    11    32 1   
    23    11    33 1   
    24    12    34 1   
    25    13    14 2   
    26    14    15 1   
    27    15    16 ar  
    28    15    21 ar  
    29    16    17 ar  
    30    16    35 1   
    31    17    18 ar  
    32    17    36 1   
    33    18    19 1   
    34    18    20 ar  
    35    19    37 1   
    36    19    38 1   
    37    19    39 1   
    38    20    21 ar  
    39    20    40 1   
    40    21    41 1   
    41    22    23 2   
    42    22    24 1   
    43    24    42 1   
    44    24    43 1   
    45    24    44 1   
    46    25    45 1   
    47    25    46 1   
    48    25    47 1   
@<TRIPOS>SUBSTRUCTURE
     1 MQT         1 TEMP              0 ****  ****    0 ROOT
