@<TRIPOS>MOLECULE
MQU
   41    43     1     0     0
SMALL
No Charge or Current Charge


@<TRIPOS>ATOM
      1 C1          -0.6150    -0.0080     2.6520 c3         1 MQU       0.090300
      2 C2          -0.6070    -1.1750     3.6690 c3         1 MQU       0.148100
      3 O8          -1.5120    -0.8570     4.7450 os         1 MQU      -0.458000
      4 C14         -1.5950    -1.8610     5.7700 c3         1 MQU       0.148400
      5 C5          -0.0750     1.3160     3.2520 c3         1 MQU       0.148100
      6 O11          1.3050     1.1420     3.6350 os         1 MQU      -0.458000
      7 C18          1.9190     2.3150     4.1950 c3         1 MQU       0.148400
      8 N22         -1.0520     0.9470    -3.8730 nb         1 MQU      -0.283000
      9 N23          0.8060    -0.3970    -4.5760 nb         1 MQU      -0.334000
     10 N24          0.0720    -0.3600     1.3870 na         1 MQU      -0.067700
     11 C27         -0.8140     0.6430    -2.5800 ca         1 MQU       0.089000
     12 C28         -0.2290     0.4160    -4.7840 ca         1 MQU       0.404900
     13 C29          1.0550    -0.7070    -3.3000 ca         1 MQU       0.417900
     14 C30          0.2760    -0.2030    -2.2280 ca         1 MQU      -0.177000
     15 C31          0.4900    -0.4660    -0.8510 ca         1 MQU      -0.036800
     16 C32          1.5190    -1.1950    -0.1520 cc         1 MQU      -0.269200
     17 C33          1.2520    -1.1110     1.2070 cd         1 MQU      -0.144100
     18 C34         -0.3430     0.0410     0.1190 ca         1 MQU      -0.101200
     19 C35         -1.4270     0.8690    -0.2130 ca         1 MQU      -0.073000
     20 C36         -1.6500     1.1670    -1.5690 ca         1 MQU      -0.109000
     21 H1          -1.6690     0.1610     2.4070 h1         1 MQU       0.080700
     22 H21          0.4110    -1.3340     4.0480 h1         1 MQU       0.040450
     23 H22         -0.9300    -2.0940     3.1620 h1         1 MQU       0.040450
     24 H141        -2.3000    -1.5510     6.5520 h1         1 MQU       0.031867
     25 H142        -1.9440    -2.8150     5.3540 h1         1 MQU       0.031867
     26 H143        -0.6160    -2.0220     6.2380 h1         1 MQU       0.031867
     27 H51         -0.1700     2.1120     2.5020 h1         1 MQU       0.040450
     28 H52         -0.6850     1.5980     4.1200 h1         1 MQU       0.040450
     29 H181         2.9630     2.1080     4.4620 h1         1 MQU       0.031867
     30 H182         1.9090     3.1430     3.4750 h1         1 MQU       0.031867
     31 H183         1.3920     2.6360     5.1030 h1         1 MQU       0.031867
     32 H251         0.2400     0.5390    -6.7640 hn         1 MQU       0.482500
     33 H252        -1.1050     1.5120    -6.2680 hn         1 MQU       0.482500
     34 H261         2.4180    -2.0300    -4.0150 hn         1 MQU       0.482000
     35 H262         2.0810    -2.1700    -2.3350 hn         1 MQU       0.482000
     36 H32          2.4030    -1.6740    -0.5610 ha         1 MQU       0.199000
     37 H33          1.8170    -1.5040     2.0480 h4         1 MQU       0.221000
     38 H35         -2.0800     1.2870     0.5480 ha         1 MQU       0.112000
     39 H36         -2.4820     1.8120    -1.8420 ha         1 MQU       0.131000
     40 N25         -0.4800     0.7340    -6.0740 nv         1 MQU      -1.054900
     41 N26          2.0800    -1.5880    -3.1650 nv         1 MQU      -1.054900
@<TRIPOS>BOND
     1     1     2 1   
     2     1     5 1   
     3     1    10 1   
     4     1    21 1   
     5     2     3 1   
     6     2    22 1   
     7     2    23 1   
     8     3     4 1   
     9     4    24 1   
    10     4    25 1   
    11     4    26 1   
    12     5     6 1   
    13     5    27 1   
    14     5    28 1   
    15     6     7 1   
    16     7    29 1   
    17     7    30 1   
    18     7    31 1   
    19     8    11 ar  
    20     8    12 ar  
    21     9    12 ar  
    22     9    13 ar  
    23    10    17 1   
    24    10    18 1   
    25    11    14 ar  
    26    11    20 ar  
    27    12    40 1   
    28    13    14 ar  
    29    13    41 1   
    30    14    15 ar  
    31    15    16 1   
    32    15    18 ar  
    33    16    17 2   
    34    16    36 1   
    35    17    37 1   
    36    18    19 ar  
    37    19    20 ar  
    38    19    38 1   
    39    20    39 1   
    40    32    40 1   
    41    33    40 1   
    42    34    41 1   
    43    35    41 1   
@<TRIPOS>SUBSTRUCTURE
     1 MQU         1 TEMP              0 ****  ****    0 ROOT
