@<TRIPOS>MOLECULE
MQU
   41    43     1     0     0
SMALL
abcg2


@<TRIPOS>ATOM
      1 C1          -0.6030     0.1330     2.6270 c3         1 MQU       0.090300
      2 C2          -0.6970    -1.0920     3.5340 c3         1 MQU       0.148100
      3 O8          -1.4550    -0.7400     4.6570 os         1 MQU      -0.458000
      4 C14         -1.5640    -1.7870     5.5880 c3         1 MQU       0.148400
      5 C5           0.0500     1.3370     3.2870 c3         1 MQU       0.148100
      6 O11          1.3380     0.9960     3.7170 os         1 MQU      -0.458000
      7 C18          2.0060     2.0680     4.3330 c3         1 MQU       0.148400
      8 N22         -1.1650     0.7850    -3.8760 nb         1 MQU      -0.283000
      9 N23          0.7770    -0.4100    -4.5350 nb         1 MQU      -0.334000
     10 N24          0.0570    -0.2250     1.3850 na         1 MQU      -0.067700
     11 C27         -0.8830     0.5030    -2.5830 ca         1 MQU       0.089000
     12 C28         -0.3120     0.3420    -4.7730 ca         1 MQU       0.404900
     13 C29          1.0590    -0.7080    -3.2830 ca         1 MQU       0.417900
     14 C30          0.2630    -0.2220    -2.1980 ca         1 MQU      -0.177000
     15 C31          0.5310    -0.4120    -0.8120 ca         1 MQU      -0.036800
     16 C32          1.5910    -0.9890    -0.0540 cc         1 MQU      -0.269200
     17 C33          1.2620    -0.8490     1.2670 cd         1 MQU      -0.144100
     18 C34         -0.4010     0.0670     0.1240 ca         1 MQU      -0.101200
     19 C35         -1.5650     0.7510    -0.2590 ca         1 MQU      -0.073000
     20 C36         -1.7880     0.9690    -1.5900 ca         1 MQU      -0.109000
     21 H1          -1.6230     0.4280     2.3720 h1         1 MQU       0.080700
     22 H21          0.3010    -1.4380     3.8320 h1         1 MQU       0.040450
     23 H22         -1.1700    -1.9110     2.9740 h1         1 MQU       0.040450
     24 H141        -2.1540    -1.4270     6.4300 h1         1 MQU       0.031867
     25 H142        -2.0660    -2.6640     5.1640 h1         1 MQU       0.031867
     26 H143        -0.5840    -2.1050     5.9620 h1         1 MQU       0.031867
     27 H51          0.0810     2.1650     2.5640 h1         1 MQU       0.040450
     28 H52         -0.5760     1.6700     4.1250 h1         1 MQU       0.040450
     29 H181         2.9970     1.7230     4.6260 h1         1 MQU       0.031867
     30 H182         2.1220     2.9230     3.6570 h1         1 MQU       0.031867
     31 H183         1.4800     2.4160     5.2290 h1         1 MQU       0.031867
     32 H251         0.1900     0.4870    -6.7340 hn         1 MQU       0.482500
     33 H252        -1.2100     1.3500    -6.2870 hn         1 MQU       0.482500
     34 H261         2.5640    -1.8970    -3.8820 hn         1 MQU       0.482000
     35 H262         2.1990    -2.0360    -2.2350 hn         1 MQU       0.482000
     36 H32          2.5150    -1.4230    -0.3950 ha         1 MQU       0.199000
     37 H33          1.8240    -1.1560     2.1330 h4         1 MQU       0.221000
     38 H35         -2.2750     1.1150     0.4720 ha         1 MQU       0.112000
     39 H36         -2.6680     1.5080    -1.9160 ha         1 MQU       0.131000
     40 N25         -0.5660     0.6070    -6.0800 nv         1 MQU      -1.054900
     41 N26          2.1470    -1.4770    -3.0670 nv         1 MQU      -1.054900
@<TRIPOS>BOND
     1     1     2 1   
     2     1     5 1   
     3     1    10 1   
     4     1    21 1   
     5     2     3 1   
     6     2    22 1   
     7     2    23 1   
     8     3     4 1   
     9     4    24 1   
    10     4    25 1   
    11     4    26 1   
    12     5     6 1   
    13     5    27 1   
    14     5    28 1   
    15     6     7 1   
    16     7    29 1   
    17     7    30 1   
    18     7    31 1   
    19     8    11 ar  
    20     8    12 ar  
    21     9    12 ar  
    22     9    13 ar  
    23    10    17 1   
    24    10    18 1   
    25    11    14 ar  
    26    11    20 ar  
    27    12    40 1   
    28    13    14 ar  
    29    13    41 1   
    30    14    15 ar  
    31    15    16 1   
    32    15    18 ar  
    33    16    17 2   
    34    16    36 1   
    35    17    37 1   
    36    18    19 ar  
    37    19    20 ar  
    38    19    38 1   
    39    20    39 1   
    40    32    40 1   
    41    33    40 1   
    42    34    41 1   
    43    35    41 1   
@<TRIPOS>SUBSTRUCTURE
     1 MQU         1 TEMP              0 ****  ****    0 ROOT
