@<TRIPOS>MOLECULE
MQV
   51    56     1     0     0
SMALL
No Charge or Current Charge


@<TRIPOS>ATOM
      1 CAJ         -2.2880    -1.3940     0.2110 c5         1 MQV       0.247800
      2 CAI         -3.0960    -2.3970     1.0380 cx         1 MQV      -0.132700
      3 CAH         -2.6760    -2.5030     2.4850 cx         1 MQV       0.110500
      4 NAA         -3.6650    -2.9260     3.4550 n8         1 MQV      -0.988200
      5 CAL         -2.1970    -3.5130     1.4680 cx         1 MQV      -0.132700
      6 CAK         -0.7800    -3.2500     0.9500 c5         1 MQV       0.247800
      7 NAB         -0.8790    -1.8900     0.3180 nh         1 MQV      -0.788300
      8 CAM          0.2740    -1.1390    -0.0720 ca         1 MQV       0.441900
      9 NAC          1.4320    -1.6690     0.3850 nb         1 MQV      -0.261000
     10 C4           2.6150    -1.0700     0.1630 ca         1 MQV       0.199000
     11 N3           3.7690    -1.6010     0.6220 nb         1 MQV      -0.265000
     12 C2           4.9060    -0.9400     0.3650 ca         1 MQV       0.410900
     13 NAG          6.0440    -1.5050     0.8380 nv         1 MQV      -1.073900
     14 N1           5.0530     0.2070    -0.3060 nb         1 MQV      -0.256000
     15 C6           3.9180     0.7550    -0.7720 ca         1 MQV       0.202900
     16 C5           2.6700     0.1430    -0.5580 ca         1 MQV      -0.311000
     17 CAR          1.4950     0.7170    -1.0530 ca         1 MQV       0.040000
     18 CAS          0.2610     0.0770    -0.8250 cp         1 MQV      -0.180000
     19 CAT         -0.9600     0.7100    -1.4050 cp         1 MQV      -0.005000
     20 CAU         -1.5190     0.1540    -2.5810 ca         1 MQV       0.120000
     21 ClE         -0.8570    -1.3010    -3.3290 cl         1 MQV      -0.187000
     22 CAV         -2.6240     0.7760    -3.1870 ca         1 MQV      -0.102000
     23 CAW         -3.1700     1.9610    -2.6540 ca         1 MQV      -0.101000
     24 CAX         -2.6190     2.5630    -1.5070 ca         1 MQV      -0.103000
     25 CAY         -1.5170     1.9640    -0.8690 cq         1 MQV      -0.019000
     26 CAZ         -0.9510     2.6610     0.3430 cq         1 MQV      -0.094000
     27 CBA         -0.8150     4.0650     0.3690 ca         1 MQV      -0.066000
     28 CBB         -0.2820     4.6700     1.5190 ca         1 MQV      -0.166000
     29 CBC          0.0950     3.8710     2.6100 ca         1 MQV       0.340900
     30 NAF         -0.0350     2.5270     2.6080 nb         1 MQV      -0.663000
     31 CBD         -0.5450     1.9470     1.4950 ca         1 MQV       0.357900
     32 H1          -2.6320    -1.3980    -0.8310 h1         1 MQV       0.065450
     33 H2          -2.3990    -0.3730     0.6020 h1         1 MQV       0.065450
     34 H3          -4.1300    -2.6130     0.7820 hc         1 MQV       0.110200
     35 H4          -1.9630    -1.7740     2.8810 h1         1 MQV       0.066700
     36 H5          -3.1930    -3.3060     4.2860 hn         1 MQV       0.406500
     37 H6          -4.1600    -2.1040     3.8240 hn         1 MQV       0.406500
     38 H8          -2.5860    -4.5260     1.5180 hc         1 MQV       0.110200
     39 H9          -0.0520    -3.2760     1.7730 h1         1 MQV       0.065450
     40 H10         -0.4730    -4.0030     0.2100 h1         1 MQV       0.065450
     41 H11          6.0060    -2.4760     1.1400 hn         1 MQV       0.505500
     42 H12          6.9350    -1.1780     0.4730 hn         1 MQV       0.505500
     43 H13          4.0130     1.6890    -1.3230 h4         1 MQV       0.016100
     44 H14          1.5290     1.6470    -1.6190 ha         1 MQV       0.118000
     45 H15         -3.0580     0.3420    -4.0840 ha         1 MQV       0.133000
     46 H16         -4.0250     2.4240    -3.1430 ha         1 MQV       0.122000
     47 H17         -3.0640     3.4790    -1.1250 ha         1 MQV       0.122000
     48 H18         -1.0970     4.6800    -0.4820 ha         1 MQV       0.120000
     49 H19         -0.1570     5.7480     1.5700 ha         1 MQV       0.125000
     50 H20          0.5090     4.3190     3.5120 h4         1 MQV       0.021100
     51 H21         -0.6540     0.8660     1.5430 h4         1 MQV       0.025100
@<TRIPOS>BOND
     1     1     2 1   
     2     1     7 1   
     3     1    32 1   
     4     1    33 1   
     5     2     3 1   
     6     2     5 1   
     7     2    34 1   
     8     3     4 1   
     9     3     5 1   
    10     3    35 1   
    11     4    36 1   
    12     4    37 1   
    13     5     6 1   
    14     5    38 1   
    15     6     7 1   
    16     6    39 1   
    17     6    40 1   
    18     7     8 1   
    19     8     9 ar  
    20     8    18 ar  
    21     9    10 ar  
    22    10    11 ar  
    23    10    16 ar  
    24    11    12 ar  
    25    12    13 1   
    26    12    14 ar  
    27    13    41 1   
    28    13    42 1   
    29    14    15 ar  
    30    15    16 ar  
    31    15    43 1   
    32    16    17 ar  
    33    17    18 ar  
    34    17    44 1   
    35    18    19 1   
    36    19    20 ar  
    37    19    25 2   
    38    20    21 1   
    39    20    22 ar  
    40    22    23 ar  
    41    22    45 1   
    42    23    24 ar  
    43    23    46 1   
    44    24    25 1   
    45    24    47 1   
    46    25    26 1   
    47    26    27 1   
    48    26    31 2   
    49    27    28 ar  
    50    27    48 1   
    51    28    29 ar  
    52    28    49 1   
    53    29    30 ar  
    54    29    50 1   
    55    30    31 ar  
    56    31    51 1   
@<TRIPOS>SUBSTRUCTURE
     1 MQV         1 TEMP              0 ****  ****    0 ROOT
