@<TRIPOS>MOLECULE
MQV
   51    56     1     0     0
SMALL
abcg2


@<TRIPOS>ATOM
      1 CAJ         -2.2160    -1.5150     0.0600 c5         1 MQV       0.247800
      2 CAI         -2.9930    -2.4170     0.9810 cx         1 MQV      -0.132700
      3 CAH         -2.7050    -2.3120     2.4460 cx         1 MQV       0.110500
      4 NAA         -3.7380    -2.7560     3.3300 n8         1 MQV      -0.988200
      5 CAL         -2.0310    -3.3650     1.6220 cx         1 MQV      -0.132700
      6 CAK         -0.6520    -3.0390     1.1180 c5         1 MQV       0.247800
      7 NAB         -0.8140    -1.7860     0.3760 nh         1 MQV      -0.788300
      8 CAM          0.2800    -1.1080    -0.0310 ca         1 MQV       0.441900
      9 NAC          1.4360    -1.6410     0.3460 nb         1 MQV      -0.261000
     10 C4           2.5900    -1.0230     0.0870 ca         1 MQV       0.199000
     11 N3           3.7200    -1.6100     0.5080 nb         1 MQV      -0.265000
     12 C2           4.8560    -0.9830     0.2550 ca         1 MQV       0.410900
     13 NAG          5.9960    -1.5430     0.6820 nv         1 MQV      -1.073900
     14 N1           5.0010     0.2020    -0.3990 nb         1 MQV      -0.256000
     15 C6           3.8990     0.7660    -0.8140 ca         1 MQV       0.202900
     16 C5           2.6320     0.2070    -0.6040 ca         1 MQV      -0.311000
     17 CAR          1.4140     0.7490    -1.0460 ca         1 MQV       0.040000
     18 CAS          0.2300     0.1200    -0.7950 cp         1 MQV      -0.180000
     19 CAT         -0.9900     0.7350    -1.3680 cp         1 MQV      -0.005000
     20 CAU         -1.5510     0.2270    -2.5380 ca         1 MQV       0.120000
     21 CLE         -0.8530    -1.1860    -3.2600 cl         1 MQV      -0.187000
     22 CAV         -2.6480     0.8100    -3.1480 ca         1 MQV      -0.102000
     23 CAW         -3.1950     1.9530    -2.5880 ca         1 MQV      -0.101000
     24 CAX         -2.6420     2.4990    -1.4420 ca         1 MQV      -0.103000
     25 CAY         -1.5430     1.9040    -0.8240 cq         1 MQV      -0.019000
     26 CAZ         -0.9750     2.5350     0.3860 cq         1 MQV      -0.094000
     27 CBA         -0.6420     3.8860     0.3930 ca         1 MQV      -0.066000
     28 CBB         -0.1260     4.4540     1.5460 ca         1 MQV      -0.166000
     29 CBC          0.0370     3.6500     2.6630 ca         1 MQV       0.340900
     30 NAF         -0.2880     2.3620     2.6800 nb         1 MQV      -0.663000
     31 CBD         -0.7770     1.8280     1.5720 ca         1 MQV       0.357900
     32 H1          -2.4500    -1.7610    -0.9780 h1         1 MQV       0.065450
     33 H2          -2.4680    -0.4680     0.2250 h1         1 MQV       0.065450
     34 H3          -3.9800    -2.7320     0.6670 hc         1 MQV       0.110200
     35 H4          -2.0810    -1.4700     2.7620 h1         1 MQV       0.066700
     36 H5          -3.3360    -3.0390     4.2150 hn         1 MQV       0.406500
     37 H6          -4.3720    -1.9950     3.5330 hn         1 MQV       0.406500
     38 H8          -2.2850    -4.4030     1.7930 hc         1 MQV       0.110200
     39 H9           0.0700    -2.9080     1.9240 h1         1 MQV       0.065450
     40 H10         -0.2730    -3.8330     0.4670 h1         1 MQV       0.065450
     41 H11          5.9860    -2.4390     1.1370 hn         1 MQV       0.505500
     42 H12          6.8810    -1.1180     0.4700 hn         1 MQV       0.505500
     43 H13          3.9930     1.7100    -1.3430 h4         1 MQV       0.016100
     44 H14          1.4170     1.6740    -1.6120 ha         1 MQV       0.118000
     45 H15         -3.0630     0.3830    -4.0510 ha         1 MQV       0.133000
     46 H16         -4.0530     2.4200    -3.0520 ha         1 MQV       0.122000
     47 H17         -3.0760     3.3920    -1.0110 ha         1 MQV       0.122000
     48 H18         -0.7700     4.4860    -0.5000 ha         1 MQV       0.120000
     49 H19          0.1510     5.4980     1.5780 ha         1 MQV       0.125000
     50 H20          0.4430     4.0620     3.5800 h4         1 MQV       0.021100
     51 H21         -1.0420     0.7780     1.6340 h4         1 MQV       0.025100
@<TRIPOS>BOND
     1     1     2 1   
     2     1     7 1   
     3     1    32 1   
     4     1    33 1   
     5     2     3 1   
     6     2     5 1   
     7     2    34 1   
     8     3     4 1   
     9     3     5 1   
    10     3    35 1   
    11     4    36 1   
    12     4    37 1   
    13     5     6 1   
    14     5    38 1   
    15     6     7 1   
    16     6    39 1   
    17     6    40 1   
    18     7     8 1   
    19     8     9 ar  
    20     8    18 ar  
    21     9    10 ar  
    22    10    11 ar  
    23    10    16 ar  
    24    11    12 ar  
    25    12    13 1   
    26    12    14 ar  
    27    13    41 1   
    28    13    42 1   
    29    14    15 ar  
    30    15    16 ar  
    31    15    43 1   
    32    16    17 ar  
    33    17    18 ar  
    34    17    44 1   
    35    18    19 1   
    36    19    20 ar  
    37    19    25 2   
    38    20    21 1   
    39    20    22 ar  
    40    22    23 ar  
    41    22    45 1   
    42    23    24 ar  
    43    23    46 1   
    44    24    25 1   
    45    24    47 1   
    46    25    26 1   
    47    26    27 1   
    48    26    31 2   
    49    27    28 ar  
    50    27    48 1   
    51    28    29 ar  
    52    28    49 1   
    53    29    30 ar  
    54    29    50 1   
    55    30    31 ar  
    56    31    51 1   
@<TRIPOS>SUBSTRUCTURE
     1 MQV         1 TEMP              0 ****  ****    0 ROOT
