@<TRIPOS>MOLECULE
MQX
   87    91     1     0     0
SMALL
No Charge or Current Charge


@<TRIPOS>ATOM
      1 C1          23.8580    55.7060    16.2740 ca         1 MQX      -0.051300
      2 C2          23.1710    56.8900    16.6350 ca         1 MQX      -0.039000
      3 C3          23.6760    58.1290    16.2080 ca         1 MQX      -0.114800
      4 C4          24.8170    58.2170    15.4420 ca         1 MQX      -0.156000
      5 C5          23.8490    60.4850    15.9180 cc         1 MQX      -0.182600
      6 C6          23.5290    61.9310    16.0210 c          1 MQX       0.640300
      7 C8          20.6440    63.8980    16.0530 c3         1 MQX      -0.048000
      8 C9          19.4480    62.9420    16.3260 c3         1 MQX      -0.088433
      9 C12         21.5150    63.6880    18.5390 c          1 MQX       0.599100
     10 C19         20.7570    63.7080    23.3610 ca         1 MQX      -0.040000
     11 C24         20.9160    65.7860    25.2920 ca         1 MQX      -0.108000
     12 C25         20.0270    65.8890    24.1990 ca         1 MQX      -0.096000
     13 C26         17.6390    65.3500    22.3150 c3         1 MQX       0.117000
     14 C27         16.7280    64.1230    22.5300 c3         1 MQX      -0.174400
     15 C28         17.1510    63.3220    23.7730 c          1 MQX       0.600100
     16 C29         18.1030    61.4710    22.3160 c3         1 MQX       0.079300
     17 O7          24.2040    62.8100    15.5030 o          1 MQX      -0.640100
     18 C31         23.1280    59.4370    16.4740 cd         1 MQX      -0.084200
     19 S           25.2720    59.8900    15.0140 ss         1 MQX       0.026400
     20 C32         25.5130    57.0620    15.0610 ca         1 MQX      -0.135000
     21 C33         25.0280    55.8050    15.4790 ca         1 MQX      -0.021000
     22 C           23.3450    54.3310    16.7240 c3         1 MQX      -0.040700
     23 F1          22.6280    54.4280    17.8750 f          1 MQX      -0.160500
     24 P           22.2600    53.4850    15.4150 p5         1 MQX       1.256500
     25 O2          21.0720    54.3410    15.1150 o          1 MQX      -0.894500
     26 O1          23.0510    53.2790    14.1630 o          1 MQX      -0.894500
     27 O           21.7940    52.1590    15.9240 o          1 MQX      -0.894500
     28 F           24.3840    53.5040    17.0180 f          1 MQX      -0.160500
     29 N           22.4040    62.2160    16.7610 ns         1 MQX      -0.476900
     30 C7          21.8560    63.5720    17.0110 c3         1 MQX       0.054700
     31 O6          21.1850    62.6990    19.1900 o          1 MQX      -0.637100
     32 N1          21.5600    64.9510    19.1710 n          1 MQX      -0.388800
     33 C16         21.0420    65.1490    20.5530 c5         1 MQX       0.031700
     34 C15         21.3230    66.6650    20.7700 c5         1 MQX      -0.082400
     35 C14         22.6880    66.8230    20.0600 c5         1 MQX      -0.096400
     36 C13         22.4600    66.0450    18.7380 c5         1 MQX       0.114000
     37 C17         19.5030    64.8750    20.7350 c          1 MQX       0.617100
     38 O5          18.7080    64.6830    19.8180 o          1 MQX      -0.619100
     39 N2          19.0700    65.0190    22.0860 n          1 MQX      -0.232400
     40 O4          16.8460    63.7310    24.8870 o          1 MQX      -0.638100
     41 N3          17.9000    62.1280    23.6290 n          1 MQX      -0.403800
     42 C30         18.4070    61.4250    24.8300 c3         1 MQX       0.079300
     43 C18         19.9010    64.8340    23.2540 ca         1 MQX      -0.089000
     44 C23         21.6990    64.6320    25.3990 ca         1 MQX       0.060100
     45 C20         21.6200    63.6430    24.4600 ca         1 MQX      -0.097800
     46 O3          22.6240    64.3630    26.3890 os         1 MQX      -0.198200
     47 C22         23.1560    63.1170    26.0440 cc         1 MQX      -0.074900
     48 C21         22.5660    62.6620    24.8790 cd         1 MQX      -0.205200
     49 H1          22.2640    56.8500    17.2340 ha         1 MQX       0.137000
     50 H2          19.0680    63.0590    17.3480 hc         1 MQX       0.039144
     51 H3          18.6180    63.1510    15.6410 hc         1 MQX       0.039144
     52 H4          19.7350    61.8930    16.1890 hc         1 MQX       0.039144
     53 H5          20.7330    62.9010    22.6330 ha         1 MQX       0.164000
     54 H6          21.0010    66.5860    26.0230 ha         1 MQX       0.122000
     55 H7          19.4400    66.7970    24.0870 ha         1 MQX       0.111000
     56 H8          17.5550    66.0010    23.1940 h1         1 MQX       0.063200
     57 H9          17.2610    65.9330    21.4640 h1         1 MQX       0.063200
     58 H10         15.7080    64.4920    22.6870 hc         1 MQX       0.068200
     59 H11         16.7540    63.5210    21.6180 hc         1 MQX       0.068200
     60 H12         18.6930    60.5520    22.4270 h1         1 MQX       0.049700
     61 H13         17.1310    61.2090    21.8790 h1         1 MQX       0.049700
     62 H14         18.6360    62.1450    21.6350 h1         1 MQX       0.049700
     63 H15         22.2240    59.5680    17.0620 ha         1 MQX       0.184000
     64 H16         26.4120    57.1320    14.4530 ha         1 MQX       0.096000
     65 H17         25.5620    54.9060    15.1810 ha         1 MQX       0.146000
     66 H20         21.9340    61.4350    17.1980 hn         1 MQX       0.320500
     67 H21         22.6510    64.2960    16.8020 h1         1 MQX       0.072700
     68 H22         19.7750    65.5360    17.2500 hc         1 MQX       0.039144
     69 H23         20.9680    66.0710    16.0420 hc         1 MQX       0.039144
     70 H24         19.3410    65.5910    15.5420 hc         1 MQX       0.039144
     71 H25         21.3280    62.6960    14.3300 hc         1 MQX       0.039144
     72 H26         20.2630    64.0330    13.8890 hc         1 MQX       0.039144
     73 H27         21.9450    64.3610    14.3410 hc         1 MQX       0.039144
     74 H28         21.6280    64.5350    21.2420 h1         1 MQX       0.087700
     75 H29         21.3660    66.9430    21.8280 hc         1 MQX       0.056700
     76 H30         20.5580    67.2910    20.2950 hc         1 MQX       0.056700
     77 H31         23.4930    66.3680    20.6500 hc         1 MQX       0.056200
     78 H32         22.9610    67.8700    19.8870 hc         1 MQX       0.056200
     79 H33         23.4080    65.6760    18.3230 h1         1 MQX       0.052700
     80 H34         21.9710    66.6810    17.9900 h1         1 MQX       0.052700
     81 H35         19.1290    60.6470    24.5520 h1         1 MQX       0.049700
     82 H36         18.9090    62.1410    25.4940 h1         1 MQX       0.049700
     83 H37         17.5700    60.9620    25.3670 h1         1 MQX       0.049700
     84 H38         23.9190    62.6900    26.6900 h4         1 MQX       0.241000
     85 H39         22.7900    61.7210    24.3800 ha         1 MQX       0.240000
     86 C11         20.1570    65.3600    16.2380 c3         1 MQX      -0.088433
     87 C10         21.0730    63.7360    14.5660 c3         1 MQX      -0.088433
@<TRIPOS>BOND
     1     1     2 ar  
     2     1    21 ar  
     3     1    22 1   
     4     2     3 ar  
     5     2    49 1   
     6     3     4 ar  
     7     3    18 1   
     8     4    19 1   
     9     4    20 ar  
    10     5     6 1   
    11     5    18 2   
    12     5    19 1   
    13     6    17 2   
    14     6    29 1   
    15     7     8 1   
    16     7    30 1   
    17     7    86 1   
    18     7    87 1   
    19     8    50 1   
    20     8    51 1   
    21     8    52 1   
    22     9    30 1   
    23     9    31 2   
    24     9    32 1   
    25    10    43 ar  
    26    10    45 ar  
    27    10    53 1   
    28    11    12 ar  
    29    11    44 ar  
    30    11    54 1   
    31    12    43 ar  
    32    12    55 1   
    33    13    14 1   
    34    13    39 1   
    35    13    56 1   
    36    13    57 1   
    37    14    15 1   
    38    14    58 1   
    39    14    59 1   
    40    15    40 2   
    41    15    41 1   
    42    16    41 1   
    43    16    60 1   
    44    16    61 1   
    45    16    62 1   
    46    18    63 1   
    47    20    21 ar  
    48    20    64 1   
    49    21    65 1   
    50    22    23 1   
    51    22    24 1   
    52    22    28 1   
    53    24    25 1   
    54    24    26 1   
    55    24    27 1   
    56    29    30 1   
    57    29    66 1   
    58    30    67 1   
    59    32    33 1   
    60    32    36 1   
    61    33    34 1   
    62    33    37 1   
    63    33    74 1   
    64    34    35 1   
    65    34    75 1   
    66    34    76 1   
    67    35    36 1   
    68    35    77 1   
    69    35    78 1   
    70    36    79 1   
    71    36    80 1   
    72    37    38 2   
    73    37    39 1   
    74    39    43 1   
    75    41    42 1   
    76    42    81 1   
    77    42    82 1   
    78    42    83 1   
    79    44    45 ar  
    80    44    46 1   
    81    45    48 1   
    82    46    47 1   
    83    47    48 2   
    84    47    84 1   
    85    48    85 1   
    86    68    86 1   
    87    69    86 1   
    88    70    86 1   
    89    71    87 1   
    90    72    87 1   
    91    73    87 1   
@<TRIPOS>SUBSTRUCTURE
     1 MQX         1 TEMP              0 ****  ****    0 ROOT
