@<TRIPOS>MOLECULE
MQX
   87    91     1     0     0
SMALL
abcg2


@<TRIPOS>ATOM
      1 C1          23.1950    56.2610    18.1380 ca         1 MQX      -0.051300
      2 C2          22.4840    57.3190    17.6010 ca         1 MQX      -0.039000
      3 C3          22.9400    58.6320    17.7930 ca         1 MQX      -0.114800
      4 C4          24.1270    58.8540    18.5290 ca         1 MQX      -0.156000
      5 C5          23.0700    60.9560    17.7260 cc         1 MQX      -0.182600
      6 C6          22.8010    62.3940    17.5320 c          1 MQX       0.640300
      7 C8          19.8640    64.2660    16.1170 c3         1 MQX      -0.048000
      8 C9          18.7220    63.3530    16.5860 c3         1 MQX      -0.088433
      9 C12         20.9490    64.4090    18.4610 c          1 MQX       0.599100
     10 C19         21.2180    63.0960    22.2410 ca         1 MQX      -0.040000
     11 C24         22.2610    64.0960    24.6920 ca         1 MQX      -0.108000
     12 C25         21.2750    64.7830    23.9950 ca         1 MQX      -0.096000
     13 C26         18.3760    64.9650    22.7480 c3         1 MQX       0.117000
     14 C27         17.5400    63.7790    22.2630 c3         1 MQX      -0.174400
     15 C28         18.0630    62.4610    22.8130 c          1 MQX       0.600100
     16 C29         18.0390    61.5210    20.5120 c3         1 MQX       0.079300
     17 O7          23.5840    63.2430    17.9680 o          1 MQX      -0.640100
     18 C31         22.3570    59.8590    17.3460 cd         1 MQX      -0.084200
     19 S           24.4960    60.5470    18.6520 ss         1 MQX       0.026400
     20 C32         24.8500    57.7870    19.0640 ca         1 MQX      -0.135000
     21 C33         24.3800    56.5040    18.8610 ca         1 MQX      -0.021000
     22 C           22.7510    54.8450    17.9040 c3         1 MQX      -0.040700
     23 F1          21.3580    54.8310    17.7760 f          1 MQX      -0.160500
     24 P           23.5390    53.9490    16.4190 p5         1 MQX       1.256500
     25 O2          23.1240    54.8180    15.2400 o          1 MQX      -0.894500
     26 O1          25.0270    53.9740    16.7410 o          1 MQX      -0.894500
     27 O           22.9040    52.5650    16.4460 o          1 MQX      -0.894500
     28 F           22.9880    54.1100    19.0740 f          1 MQX      -0.160500
     29 N           21.6630    62.7290    16.8840 ns         1 MQX      -0.476900
     30 C7          21.1540    64.0910    16.9700 c3         1 MQX       0.054700
     31 O6          20.4610    63.5500    19.2010 o          1 MQX      -0.637100
     32 N1          21.3250    65.6020    18.9450 n          1 MQX      -0.388800
     33 C16         21.2600    65.8230    20.3970 c5         1 MQX       0.031700
     34 C15         21.7620    67.2630    20.5670 c5         1 MQX      -0.082400
     35 C14         22.7310    67.4300    19.3950 c5         1 MQX      -0.096400
     36 C13         22.0260    66.6960    18.2560 c5         1 MQX       0.114000
     37 C17         19.8470    65.6490    20.9410 c          1 MQX       0.617100
     38 O5          18.8900    66.1520    20.3540 o          1 MQX      -0.619100
     39 N2          19.7090    65.0170    22.1350 n          1 MQX      -0.232400
     40 O4          18.2510    62.3520    24.0320 o          1 MQX      -0.638100
     41 N3          18.3080    61.4540    21.9490 n          1 MQX      -0.403800
     42 C30         18.9420    60.2300    22.4190 c3         1 MQX       0.079300
     43 C18         20.7620    64.2880    22.7860 ca         1 MQX      -0.089000
     44 C23         22.7090    62.9130    24.1290 ca         1 MQX       0.060100
     45 C20         22.2170    62.4000    22.9190 ca         1 MQX      -0.097800
     46 O3          23.6720    62.0820    24.6310 os         1 MQX      -0.198200
     47 C22         23.7910    61.0420    23.7340 cc         1 MQX      -0.074900
     48 C21         22.9470    61.1780    22.6880 cd         1 MQX      -0.205200
     49 H1          21.5800    57.1420    17.0360 ha         1 MQX       0.137000
     50 H2          18.4360    63.5660    17.6150 hc         1 MQX       0.039144
     51 H3          17.8530    63.5160    15.9460 hc         1 MQX       0.039144
     52 H4          18.9760    62.2930    16.5190 hc         1 MQX       0.039144
     53 H5          20.8220    62.7490    21.2990 ha         1 MQX       0.164000
     54 H6          22.6630    64.4710    25.6240 ha         1 MQX       0.122000
     55 H7          20.8920    65.7170    24.3830 ha         1 MQX       0.111000
     56 H8          18.5070    64.9120    23.8260 h1         1 MQX       0.063200
     57 H9          17.8600    65.8900    22.5020 h1         1 MQX       0.063200
     58 H10         16.5230    63.9010    22.6480 hc         1 MQX       0.068200
     59 H11         17.4850    63.8040    21.1790 hc         1 MQX       0.068200
     60 H12         18.0650    60.5060    20.1200 h1         1 MQX       0.049700
     61 H13         17.0480    61.9250    20.3140 h1         1 MQX       0.049700
     62 H14         18.7860    62.1170    19.9860 h1         1 MQX       0.049700
     63 H15         21.4410    59.8960    16.7720 ha         1 MQX       0.184000
     64 H16         25.7590    57.9580    19.6270 ha         1 MQX       0.096000
     65 H17         24.9320    55.6660    19.2610 ha         1 MQX       0.146000
     66 H20         20.9910    61.9990    16.7140 hn         1 MQX       0.320500
     67 H21         21.9090    64.7540    16.5530 h1         1 MQX       0.072700
     68 H22         19.1350    65.9960    17.2390 hc         1 MQX       0.039144
     69 H23         20.1780    66.4090    15.8690 hc         1 MQX       0.039144
     70 H24         18.5200    65.8710    15.5900 hc         1 MQX       0.039144
     71 H25         20.4990    62.9130    14.5170 hc         1 MQX       0.039144
     72 H26         19.3340    64.1430    14.0250 hc         1 MQX       0.039144
     73 H27         21.0230    64.5880    14.3020 hc         1 MQX       0.039144
     74 H28         21.9450    65.1300    20.8790 h1         1 MQX       0.087700
     75 H29         22.2250    67.4110    21.5410 hc         1 MQX       0.056700
     76 H30         20.9250    67.9580    20.4680 hc         1 MQX       0.056700
     77 H31         23.6810    66.9430    19.6200 hc         1 MQX       0.056200
     78 H32         22.9270    68.4730    19.1500 hc         1 MQX       0.056200
     79 H33         22.7210    66.3100    17.5140 h1         1 MQX       0.052700
     80 H34         21.3090    67.3480    17.7550 h1         1 MQX       0.052700
     81 H35         19.8570    60.0510    21.8500 h1         1 MQX       0.049700
     82 H36         19.1880    60.3340    23.4700 h1         1 MQX       0.049700
     83 H37         18.2750    59.3760    22.2840 h1         1 MQX       0.049700
     84 H38         24.5220    60.2940    23.9910 h4         1 MQX       0.241000
     85 H39         22.8500    60.5030    21.8540 ha         1 MQX       0.240000
     86 C11         19.4020    65.7260    16.2170 c3         1 MQX      -0.088433
     87 C10         20.2060    63.9550    14.6530 c3         1 MQX      -0.088433
@<TRIPOS>BOND
     1     1     2 ar  
     2     1    21 ar  
     3     1    22 1   
     4     2     3 ar  
     5     2    49 1   
     6     3     4 ar  
     7     3    18 1   
     8     4    19 1   
     9     4    20 ar  
    10     5     6 1   
    11     5    18 2   
    12     5    19 1   
    13     6    17 2   
    14     6    29 1   
    15     7     8 1   
    16     7    30 1   
    17     7    86 1   
    18     7    87 1   
    19     8    50 1   
    20     8    51 1   
    21     8    52 1   
    22     9    30 1   
    23     9    31 2   
    24     9    32 1   
    25    10    43 ar  
    26    10    45 ar  
    27    10    53 1   
    28    11    12 ar  
    29    11    44 ar  
    30    11    54 1   
    31    12    43 ar  
    32    12    55 1   
    33    13    14 1   
    34    13    39 1   
    35    13    56 1   
    36    13    57 1   
    37    14    15 1   
    38    14    58 1   
    39    14    59 1   
    40    15    40 2   
    41    15    41 1   
    42    16    41 1   
    43    16    60 1   
    44    16    61 1   
    45    16    62 1   
    46    18    63 1   
    47    20    21 ar  
    48    20    64 1   
    49    21    65 1   
    50    22    23 1   
    51    22    24 1   
    52    22    28 1   
    53    24    25 1   
    54    24    26 1   
    55    24    27 1   
    56    29    30 1   
    57    29    66 1   
    58    30    67 1   
    59    32    33 1   
    60    32    36 1   
    61    33    34 1   
    62    33    37 1   
    63    33    74 1   
    64    34    35 1   
    65    34    75 1   
    66    34    76 1   
    67    35    36 1   
    68    35    77 1   
    69    35    78 1   
    70    36    79 1   
    71    36    80 1   
    72    37    38 2   
    73    37    39 1   
    74    39    43 1   
    75    41    42 1   
    76    42    81 1   
    77    42    82 1   
    78    42    83 1   
    79    44    45 ar  
    80    44    46 1   
    81    45    48 1   
    82    46    47 1   
    83    47    48 2   
    84    47    84 1   
    85    48    85 1   
    86    68    86 1   
    87    69    86 1   
    88    70    86 1   
    89    71    87 1   
    90    72    87 1   
    91    73    87 1   
@<TRIPOS>SUBSTRUCTURE
     1 MQX         1 TEMP              0 ****  ****    0 ROOT
