@<TRIPOS>MOLECULE
MQY
   48    51     1     0     0
SMALL
No Charge or Current Charge


@<TRIPOS>ATOM
      1 N1           0.4170    -1.2900     0.3720 n          1 MQY      -0.231000
      2 C2          -0.9960    -1.0320     0.2800 ca         1 MQY       0.041000
      3 C3           1.2780    -0.5630     1.1880 c          1 MQY       0.622000
      4 C4           1.0610    -2.3080    -0.3450 c          1 MQY       0.566000
      5 C5          -1.7650    -0.8290     1.4430 ca         1 MQY      -0.120500
      6 C6          -1.6320    -0.9780    -0.9770 ca         1 MQY      -0.120500
      7 N7           2.5600    -1.0790     1.0430 n          1 MQY      -0.415800
      8 O8           0.9760     0.3840     1.9000 o          1 MQY      -0.529000
      9 C9           2.5540    -2.1880     0.0700 c5         1 MQY       0.023700
     10 O10          0.5290    -3.1180    -1.0960 o          1 MQY      -0.479000
     11 C11         -3.1450    -0.5770     1.3560 ca         1 MQY       0.008500
     12 C12         -3.0120    -0.7260    -1.0730 ca         1 MQY       0.008500
     13 C13          3.7380    -0.4580     1.6790 c3         1 MQY       0.164300
     14 C14          3.0980    -3.5170     0.6440 c3         1 MQY      -0.094100
     15 C15         -3.7740    -0.5270     0.0960 ca         1 MQY      -0.289500
     16 C16          4.2900     0.7240     0.8800 ca         1 MQY      -0.084300
     17 S17         -5.5490    -0.1890    -0.0220 sy         1 MQY       1.014500
     18 C18          5.2250     0.5930    -0.1810 ca         1 MQY      -0.066000
     19 C19          3.8410     2.0200     1.1950 ca         1 MQY      -0.138000
     20 C20         -5.6370     1.6470    -0.1390 c3         1 MQY       0.144000
     21 O21         -6.0320    -0.7390    -1.2990 o          1 MQY      -0.468500
     22 O22         -6.1730    -0.5840     1.2500 o          1 MQY      -0.468500
     23 C23          5.6550     1.7660    -0.8680 ca         1 MQY       0.262000
     24 C24          5.7370    -0.6680    -0.5730 ca         1 MQY      -0.113000
     25 C25          4.3180     3.1180     0.4690 ca         1 MQY       0.350900
     26 F26         -4.9700     2.1050    -1.2260 f          1 MQY      -0.099000
     27 F27         -6.9190     2.0740    -0.2360 f          1 MQY      -0.099000
     28 F28         -5.0910     2.2370     0.9520 f          1 MQY      -0.099000
     29 N29          5.2050     3.0000    -0.5420 nb         1 MQY      -0.648000
     30 C30          6.5790     1.6390    -1.9230 ca         1 MQY      -0.074000
     31 C31          6.6560    -0.7690    -1.6290 ca         1 MQY      -0.097000
     32 C32          7.0780     0.3830    -2.3050 ca         1 MQY      -0.105000
     33 H5          -1.2990    -0.8750     2.4240 ha         1 MQY       0.139000
     34 H6          -1.0580    -1.1200    -1.8890 ha         1 MQY       0.139000
     35 H9           3.1200    -1.9160    -0.8310 h1         1 MQY       0.095700
     36 H11         -3.7160    -0.4230     2.2710 ha         1 MQY       0.148000
     37 H12         -3.4770    -0.6850    -2.0570 ha         1 MQY       0.148000
     38 H13          3.4540    -0.1110     2.6820 h1         1 MQY       0.074200
     39 H13A         4.5170    -1.2130     1.8330 h1         1 MQY       0.074200
     40 H14          3.0270    -4.3230    -0.0960 hc         1 MQY       0.056367
     41 H14A         4.1510    -3.4260     0.9330 hc         1 MQY       0.056367
     42 H14B         2.5330    -3.8250     1.5320 hc         1 MQY       0.056367
     43 H19          3.1240     2.1840     1.9940 ha         1 MQY       0.140000
     44 H24          5.4370    -1.5810    -0.0720 ha         1 MQY       0.108000
     45 H25          3.9770     4.1270     0.7020 h4         1 MQY       0.026100
     46 H30          6.9100     2.5290    -2.4510 ha         1 MQY       0.135000
     47 H31          7.0430    -1.7430    -1.9210 ha         1 MQY       0.117000
     48 H32          7.7910     0.3060    -3.1230 ha         1 MQY       0.121000
@<TRIPOS>BOND
     1     1     2 1   
     2     1     3 1   
     3     1     4 1   
     4     2     5 ar  
     5     2     6 ar  
     6     3     7 1   
     7     3     8 2   
     8     4     9 1   
     9     4    10 2   
    10     5    11 ar  
    11     5    33 1   
    12     6    12 ar  
    13     6    34 1   
    14     7     9 1   
    15     7    13 1   
    16     9    14 1   
    17     9    35 1   
    18    11    15 ar  
    19    11    36 1   
    20    12    15 ar  
    21    12    37 1   
    22    13    16 1   
    23    13    38 1   
    24    13    39 1   
    25    14    40 1   
    26    14    41 1   
    27    14    42 1   
    28    15    17 1   
    29    16    18 ar  
    30    16    19 ar  
    31    17    20 1   
    32    17    21 2   
    33    17    22 2   
    34    18    23 ar  
    35    18    24 ar  
    36    19    25 ar  
    37    19    43 1   
    38    20    26 1   
    39    20    27 1   
    40    20    28 1   
    41    23    29 ar  
    42    23    30 ar  
    43    24    31 ar  
    44    24    44 1   
    45    25    29 ar  
    46    25    45 1   
    47    30    32 ar  
    48    30    46 1   
    49    31    32 ar  
    50    31    47 1   
    51    32    48 1   
@<TRIPOS>SUBSTRUCTURE
     1 MQY         1 TEMP              0 ****  ****    0 ROOT
