@<TRIPOS>MOLECULE
MQY
   48    51     1     0     0
SMALL
bcc


@<TRIPOS>ATOM
      1 N1           0.3890    -1.1570     0.3360 n          1 MQY      -0.457600
      2 C2          -0.9990    -0.9420     0.2440 ca         1 MQY       0.133600
      3 C3           1.2240    -0.4500     1.2220 c          1 MQY       0.831500
      4 C4           1.0930    -2.0780    -0.3990 c          1 MQY       0.708500
      5 C5          -1.7880    -1.0480     1.3830 ca         1 MQY      -0.138500
      6 C6          -1.5620    -0.6410    -0.9900 ca         1 MQY      -0.138500
      7 N7           2.4650    -0.9540     1.0750 n          1 MQY      -0.482800
      8 O8           0.8510     0.4360     1.9520 o          1 MQY      -0.604500
      9 C9           2.5340    -1.9790     0.0540 c5         1 MQY       0.023700
     10 O10          0.6390    -2.8310    -1.2200 o          1 MQY      -0.554500
     11 C11         -3.1530    -0.8410     1.2940 ca         1 MQY      -0.009500
     12 C12         -2.9280    -0.4460    -1.0920 ca         1 MQY      -0.009500
     13 C13          3.6260    -0.3390     1.6840 c3         1 MQY       0.164300
     14 C14          3.0490    -3.3190     0.5600 c3         1 MQY      -0.094100
     15 C15         -3.7060    -0.5450     0.0540 ca         1 MQY      -0.289500
     16 C16          4.2010     0.7520     0.8120 ca         1 MQY      -0.084300
     17 S17         -5.4420    -0.2980    -0.0690 sy         1 MQY       1.045300
     18 C18          5.2100     0.5010    -0.1570 ca         1 MQY      -0.131300
     19 C19          3.7110     2.0270     0.9150 ca         1 MQY      -0.221300
     20 C20         -5.5860     1.5300     0.1980 c3         1 MQY       0.618700
     21 O21         -5.8860    -0.5280    -1.4310 o          1 MQY      -0.539300
     22 O22         -6.1160    -0.9100     1.0610 o          1 MQY      -0.539300
     23 C23          5.6250     1.5870    -0.9740 ca         1 MQY       0.392600
     24 C24          5.8250    -0.7590    -0.3480 ca         1 MQY      -0.131000
     25 C25          4.1980     3.0330     0.0600 ca         1 MQY       0.416200
     26 F26         -4.9230     2.1700    -0.7500 f          1 MQY      -0.220300
     27 F27         -6.8620     1.8660     0.1530 f          1 MQY      -0.220300
     28 F28         -5.0820     1.8490     1.3780 f          1 MQY      -0.220300
     29 N29          5.1090     2.8340    -0.8520 nb         1 MQY      -0.648000
     30 C30          6.6160     1.3750    -1.9600 ca         1 MQY      -0.157300
     31 C31          6.7840    -0.9350    -1.3070 ca         1 MQY      -0.115000
     32 C32          7.1810     0.1410    -2.1250 ca         1 MQY      -0.123000
     33 H5          -1.3500    -1.3100     2.3360 ha         1 MQY       0.157000
     34 H6          -0.9410    -0.5440    -1.8690 ha         1 MQY       0.157000
     35 H9           3.1330    -1.6410    -0.8000 h1         1 MQY       0.095700
     36 H11         -3.7670    -0.9340     2.1780 ha         1 MQY       0.166000
     37 H12         -3.3640    -0.2200    -2.0550 ha         1 MQY       0.166000
     38 H13          3.3250     0.0790     2.6440 h1         1 MQY       0.074200
     39 H13A         4.3580    -1.1150     1.9020 h1         1 MQY       0.074200
     40 H14          3.0140    -4.0550    -0.2410 hc         1 MQY       0.056367
     41 H14A         4.0840    -3.2430     0.8890 hc         1 MQY       0.056367
     42 H14B         2.4490    -3.6760     1.3960 hc         1 MQY       0.056367
     43 H19          2.9470     2.2710     1.6420 ha         1 MQY       0.158000
     44 H24          5.5510    -1.5980     0.2780 ha         1 MQY       0.126000
     45 H25          3.8040     4.0400     0.1480 h4         1 MQY       0.026100
     46 H30          6.9120     2.2140    -2.5760 ha         1 MQY       0.153000
     47 H31          7.2440    -1.9060    -1.4360 ha         1 MQY       0.135000
     48 H32          7.9390    -0.0110    -2.8820 ha         1 MQY       0.139000
@<TRIPOS>BOND
     1     1     2 1   
     2     1     3 1   
     3     1     4 1   
     4     2     5 ar  
     5     2     6 ar  
     6     3     7 1   
     7     3     8 2   
     8     4     9 1   
     9     4    10 2   
    10     5    11 ar  
    11     5    33 1   
    12     6    12 ar  
    13     6    34 1   
    14     7     9 1   
    15     7    13 1   
    16     9    14 1   
    17     9    35 1   
    18    11    15 ar  
    19    11    36 1   
    20    12    15 ar  
    21    12    37 1   
    22    13    16 1   
    23    13    38 1   
    24    13    39 1   
    25    14    40 1   
    26    14    41 1   
    27    14    42 1   
    28    15    17 1   
    29    16    18 ar  
    30    16    19 ar  
    31    17    20 1   
    32    17    21 2   
    33    17    22 2   
    34    18    23 ar  
    35    18    24 ar  
    36    19    25 ar  
    37    19    43 1   
    38    20    26 1   
    39    20    27 1   
    40    20    28 1   
    41    23    29 ar  
    42    23    30 ar  
    43    24    31 ar  
    44    24    44 1   
    45    25    29 ar  
    46    25    45 1   
    47    30    32 ar  
    48    30    46 1   
    49    31    32 ar  
    50    31    47 1   
    51    32    48 1   
@<TRIPOS>SUBSTRUCTURE
     1 MQY         1 TEMP              0 ****  ****    0 ROOT
