@<TRIPOS>MOLECULE
MQZ
  122   125     1     0     0
SMALL
No Charge or Current Charge


@<TRIPOS>ATOM
      1 C10        -17.6690    -6.0470   -30.6280 c3         1 MQZ      -0.045400
      2 C13        -19.9420    -5.1110   -32.9190 c3         1 MQZ      -0.065800
      3 C15        -15.4240    -5.7010   -29.3890 c          1 MQZ       0.578100
      4 C17        -13.4250    -4.6200   -30.4470 c3         1 MQZ       0.021400
      5 C22        -13.0600    -3.9890   -29.0840 c2         1 MQZ       0.630200
      6 C24        -14.0660    -2.4020   -27.3250 c3         1 MQZ       0.143800
      7 C28        -10.9260    -5.2020   -28.6650 c3         1 MQZ       0.092500
      8 C02        -18.8540    -1.5100   -27.9680 c5         1 MQZ      -0.063700
      9 C03        -17.8850    -0.9920   -29.0670 c5         1 MQZ      -0.098400
     10 C04        -16.5410    -0.9040   -28.3010 c5         1 MQZ       0.104000
     11 C06        -18.0040    -2.6260   -27.2680 c5         1 MQZ       0.025700
     12 C07        -18.2910    -4.0510   -27.8600 c          1 MQZ       0.601100
     13 C09        -16.9680    -5.6770   -29.2980 c3         1 MQZ       0.026700
     14 C11        -19.1980    -6.2140   -30.4850 c3         1 MQZ      -0.040100
     15 C18        -13.0720    -3.7910   -31.7420 c3         1 MQZ      -0.048000
     16 C19        -11.5830    -3.3610   -31.7330 c3         1 MQZ      -0.090433
     17 C25        -15.5030    -2.6810   -26.7840 c          1 MQZ       0.557100
     18 C29         -9.5640    -4.5950   -28.1330 c3         1 MQZ      -0.030000
     19 C30         -9.3340    -3.1650   -28.7070 c3         1 MQZ      -0.087100
     20 C31         -9.5630    -4.5170   -26.5790 c3         1 MQZ      -0.087100
     21 C32         -8.3520    -5.4610   -28.5820 c3         1 MQZ      -0.087100
     22 C33        -11.1570    -6.6770   -28.1730 c          1 MQZ       0.603100
     23 C35        -12.3390    -8.0900   -26.4420 c3         1 MQZ       0.047700
     24 C36        -13.0040    -9.2220   -27.2870 c          1 MQZ       0.610100
     25 C38        -14.4520    -9.7290   -29.2980 c3         1 MQZ       0.087400
     26 C39        -15.8700   -10.0180   -28.8370 cc         1 MQZ       0.438700
     27 C41        -18.0170    -9.6770   -28.3690 cd         1 MQZ       0.294900
     28 C42        -17.9130   -10.9950   -27.9940 cc         1 MQZ      -0.257000
     29 C44        -14.3980    -9.2130   -30.7580 c3         1 MQZ      -0.154400
     30 C45        -12.9650    -9.0030   -31.2390 c          1 MQZ       0.606100
     31 C47        -11.0470   -10.1250   -32.1590 c3         1 MQZ       0.152900
     32 C50        -13.1140    -7.7770   -25.1300 c3         1 MQZ      -0.021400
     33 C51        -12.5090    -6.5650   -24.4140 ca         1 MQZ      -0.073300
     34 C52        -11.2030    -6.6150   -23.8820 ca         1 MQZ      -0.104500
     35 C53        -10.6460    -5.4870   -23.2540 ca         1 MQZ      -0.116000
     36 C54        -11.3880    -4.2990   -23.1550 ca         1 MQZ      -0.115000
     37 C55        -12.6880    -4.2410   -23.6810 ca         1 MQZ      -0.116000
     38 C56        -13.2460    -5.3690   -24.3060 ca         1 MQZ      -0.104500
     39 C57        -13.2120    -8.9870   -24.1690 c3         1 MQZ      -0.083100
     40 N05        -16.6030    -2.1370   -27.4900 n          1 MQZ      -0.434800
     41 N08        -17.3440    -4.3330   -28.8210 ns         1 MQZ      -0.502900
     42 N16        -14.8560    -4.9870   -30.4220 ns         1 MQZ      -0.507900
     43 N23        -13.8730    -2.9320   -28.7120 nu         1 MQZ      -0.896400
     44 N27        -12.0500    -4.2620   -28.3350 n2         1 MQZ      -0.679900
     45 N34        -12.1320    -6.8450   -27.2210 ns         1 MQZ      -0.491900
     46 N37        -13.7370    -8.8230   -28.3820 ns         1 MQZ      -0.485900
     47 N40        -16.8450    -9.1170   -28.8530 nd         1 MQZ      -0.614000
     48 O14        -21.4300    -7.0520   -31.7690 o          1 MQZ      -0.499000
     49 O26        -15.7000    -3.4390   -25.8430 o          1 MQZ      -0.594100
     50 O46        -12.4100   -10.1670   -31.6980 os         1 MQZ      -0.432100
     51 O48        -12.3880    -7.9270   -31.2000 o          1 MQZ      -0.498000
     52 O58        -10.5350    -7.6400   -28.6040 o          1 MQZ      -0.624100
     53 O59        -14.7210    -6.2200   -28.5410 o          1 MQZ      -0.589100
     54 O60        -19.1170    -4.8650   -27.4730 o          1 MQZ      -0.562100
     55 S12        -19.9790    -6.7530   -32.0730 s4         1 MQZ       0.174400
     56 S43        -16.3000   -11.6000   -28.2390 ss         1 MQZ      -0.114400
     57 H102       -17.2480    -6.9900   -30.9990 hc         1 MQZ       0.047200
     58 H101       -17.4540    -5.2820   -31.3840 hc         1 MQZ       0.047200
     59 H132       -20.5650    -5.1680   -33.8190 h1         1 MQZ       0.077033
     60 H133       -20.3370    -4.3450   -32.2410 h1         1 MQZ       0.077033
     61 H131       -18.9090    -4.8740   -33.1990 h1         1 MQZ       0.077033
     62 H171       -12.8690    -5.5610   -30.5110 h1         1 MQZ       0.103700
     63 H203       -13.7280    -1.7740   -31.1160 hc         1 MQZ       0.041478
     64 H201       -13.7380    -2.0200   -32.8580 hc         1 MQZ       0.041478
     65 H202       -15.0170    -2.7360   -31.8750 hc         1 MQZ       0.041478
     66 H213       -12.7040    -5.6070   -32.9290 hc         1 MQZ       0.041478
     67 H212       -14.3560    -4.9810   -33.0870 hc         1 MQZ       0.041478
     68 H211       -13.0180    -4.1670   -33.9110 hc         1 MQZ       0.041478
     69 H241       -13.3530    -2.8660   -26.6320 h1         1 MQZ       0.089200
     70 H242       -13.9050    -1.3170   -27.2980 h1         1 MQZ       0.089200
     71 H281       -10.8300    -5.2940   -29.7530 h1         1 MQZ       0.058700
     72 H013       -20.7790    -1.0520   -28.9100 hc         1 MQZ       0.048700
     73 H011       -20.1780    -2.6670   -29.2980 hc         1 MQZ       0.048700
     74 H021       -19.0360    -0.7040   -27.2460 hc         1 MQZ       0.064700
     75 H032       -18.1910    -0.0230   -29.4760 hc         1 MQZ       0.057700
     76 H031       -17.8170    -1.6910   -29.9090 hc         1 MQZ       0.057700
     77 H042       -15.6850    -0.8740   -28.9870 h1         1 MQZ       0.051200
     78 H041       -16.5020    -0.0170   -27.6540 h1         1 MQZ       0.051200
     79 H061       -18.2430    -2.6820   -26.1970 h1         1 MQZ       0.106700
     80 H091       -17.2360    -6.4190   -28.5330 h1         1 MQZ       0.121700
     81 H112       -19.6650    -5.2710   -30.1750 h1         1 MQZ       0.091700
     82 H111       -19.4220    -6.9790   -29.7330 h1         1 MQZ       0.091700
     83 H191       -11.3670    -2.7080   -30.8800 hc         1 MQZ       0.041478
     84 H192       -10.9180    -4.2310   -31.6860 hc         1 MQZ       0.041478
     85 H193       -11.3310    -2.8050   -32.6440 hc         1 MQZ       0.041478
     86 H302        -8.3840    -2.7490   -28.3510 hc         1 MQZ       0.038589
     87 H301        -9.2960    -3.1860   -29.8020 hc         1 MQZ       0.038589
     88 H303       -10.1260    -2.4690   -28.4030 hc         1 MQZ       0.038589
     89 H313        -8.6240    -4.0880   -26.2090 hc         1 MQZ       0.038589
     90 H311       -10.3830    -3.8900   -26.2080 hc         1 MQZ       0.038589
     91 H312        -9.6700    -5.5120   -26.1330 hc         1 MQZ       0.038589
     92 H322        -7.4040    -4.9630   -28.3430 hc         1 MQZ       0.038589
     93 H321        -8.3350    -6.4320   -28.0740 hc         1 MQZ       0.038589
     94 H323        -8.3740    -5.6380   -29.6640 hc         1 MQZ       0.038589
     95 H351       -11.3460    -8.4680   -26.1670 h1         1 MQZ       0.082700
     96 H381       -13.9220   -10.6930   -29.2900 h1         1 MQZ       0.119700
     97 H411       -18.9150    -9.0740   -28.3130 h4         1 MQZ       0.044100
     98 H421       -18.6810   -11.6410   -27.5910 h4         1 MQZ       0.160000
     99 H442       -14.9520    -8.2710   -30.8410 hc         1 MQZ       0.075200
    100 H441       -14.8610    -9.9910   -31.3760 hc         1 MQZ       0.075200
    101 H473       -10.7260   -11.1190   -32.4950 h1         1 MQZ       0.053367
    102 H471       -10.9400    -9.4300   -33.0020 h1         1 MQZ       0.053367
    103 H472       -10.3720    -9.8030   -31.3560 h1         1 MQZ       0.053367
    104 H501       -14.1430    -7.5300   -25.4230 hc         1 MQZ       0.075700
    105 H521       -10.6120    -7.5250   -23.9620 ha         1 MQZ       0.118000
    106 H531        -9.6370    -5.5340   -22.8500 ha         1 MQZ       0.107000
    107 H541       -10.9550    -3.4250   -22.6730 ha         1 MQZ       0.108000
    108 H551       -13.2650    -3.3220   -23.6070 ha         1 MQZ       0.107000
    109 H561       -14.2540    -5.3120   -24.7090 ha         1 MQZ       0.118000
    110 H572       -13.6950    -8.6900   -23.2300 hc         1 MQZ       0.046700
    111 H571       -13.8110    -9.7930   -24.6070 hc         1 MQZ       0.046700
    112 H573       -12.2190    -9.3860   -23.9300 hc         1 MQZ       0.046700
    113 H081       -16.7050    -3.5690   -29.0060 hn         1 MQZ       0.299500
    114 H161       -15.4770    -4.5270   -31.0680 hn         1 MQZ       0.310500
    115 H231       -14.5190    -2.6270   -29.4300 hn         1 MQZ       0.461000
    116 H341       -12.6240    -5.9980   -26.9540 hn         1 MQZ       0.355500
    117 H371       -13.8690    -7.8170   -28.4850 hn         1 MQZ       0.352500
    118 O49        -12.8390   -10.4100   -27.0400 o          1 MQZ      -0.613100
    119 C20        -13.9450    -2.5100   -31.8990 c3         1 MQZ      -0.090433
    120 C21        -13.3030    -4.6900   -32.9890 c3         1 MQZ      -0.090433
    121 C01        -20.2490    -1.9200   -28.4990 c3         1 MQZ      -0.086100
    122 H012       -20.8700    -2.3370   -27.6970 hc         1 MQZ       0.048700
@<TRIPOS>BOND
     1     1    13 1   
     2     1    14 1   
     3     1    57 1   
     4     1    58 1   
     5     2    55 1   
     6     2    59 1   
     7     2    60 1   
     8     2    61 1   
     9     3    13 1   
    10     3    42 1   
    11     3    53 2   
    12     4     5 1   
    13     4    15 1   
    14     4    42 1   
    15     4    62 1   
    16     5    43 1   
    17     5    44 2   
    18     6    17 1   
    19     6    43 1   
    20     6    69 1   
    21     6    70 1   
    22     7    18 1   
    23     7    22 1   
    24     7    44 1   
    25     7    71 1   
    26     8     9 1   
    27     8    11 1   
    28     8    74 1   
    29     8   121 1   
    30     9    10 1   
    31     9    75 1   
    32     9    76 1   
    33    10    40 1   
    34    10    77 1   
    35    10    78 1   
    36    11    12 1   
    37    11    40 1   
    38    11    79 1   
    39    12    41 1   
    40    12    54 2   
    41    13    41 1   
    42    13    80 1   
    43    14    55 1   
    44    14    81 1   
    45    14    82 1   
    46    15    16 1   
    47    15   119 1   
    48    15   120 1   
    49    16    83 1   
    50    16    84 1   
    51    16    85 1   
    52    17    40 1   
    53    17    49 2   
    54    18    19 1   
    55    18    20 1   
    56    18    21 1   
    57    19    86 1   
    58    19    87 1   
    59    19    88 1   
    60    20    89 1   
    61    20    90 1   
    62    20    91 1   
    63    21    92 1   
    64    21    93 1   
    65    21    94 1   
    66    22    45 1   
    67    22    52 2   
    68    23    24 1   
    69    23    32 1   
    70    23    45 1   
    71    23    95 1   
    72    24    46 1   
    73    24   118 2   
    74    25    26 1   
    75    25    29 1   
    76    25    46 1   
    77    25    96 1   
    78    26    47 2   
    79    26    56 1   
    80    27    28 2   
    81    27    47 1   
    82    27    97 1   
    83    28    56 1   
    84    28    98 1   
    85    29    30 1   
    86    29    99 1   
    87    29   100 1   
    88    30    50 1   
    89    30    51 2   
    90    31    50 1   
    91    31   101 1   
    92    31   102 1   
    93    31   103 1   
    94    32    33 1   
    95    32    39 1   
    96    32   104 1   
    97    33    34 ar  
    98    33    38 ar  
    99    34    35 ar  
   100    34   105 1   
   101    35    36 ar  
   102    35   106 1   
   103    36    37 ar  
   104    36   107 1   
   105    37    38 ar  
   106    37   108 1   
   107    38   109 1   
   108    39   110 1   
   109    39   111 1   
   110    39   112 1   
   111    41   113 1   
   112    42   114 1   
   113    43   115 1   
   114    45   116 1   
   115    46   117 1   
   116    48    55 2   
   117    63   119 1   
   118    64   119 1   
   119    65   119 1   
   120    66   120 1   
   121    67   120 1   
   122    68   120 1   
   123    72   121 1   
   124    73   121 1   
   125   121   122 1   
@<TRIPOS>SUBSTRUCTURE
     1 MQZ         1 TEMP              0 ****  ****    0 ROOT
