@<TRIPOS>MOLECULE
MQZ
  122   125     1     0     0
SMALL
abcg2


@<TRIPOS>ATOM
      1 C10        -17.4420    -5.6840   -31.4660 c3         1 MQZ      -0.045400
      2 C13        -19.8500    -4.5090   -33.3100 c3         1 MQZ      -0.065800
      3 C15        -15.1020    -5.6190   -30.3890 c          1 MQZ       0.578100
      4 C17        -13.2280    -4.1560   -30.9520 c3         1 MQZ       0.021400
      5 C22        -12.9340    -3.6630   -29.5190 c2         1 MQZ       0.630200
      6 C24        -13.9770    -2.3260   -27.7070 c3         1 MQZ       0.143800
      7 C28        -11.1550    -5.2020   -28.9780 c3         1 MQZ       0.092500
      8 C02        -18.7170    -2.9150   -27.0970 c5         1 MQZ      -0.063700
      9 C03        -18.3030    -1.7660   -28.0230 c5         1 MQZ      -0.098400
     10 C04        -16.8490    -1.4970   -27.6500 c5         1 MQZ       0.104000
     11 C06        -17.4360    -3.7830   -27.0020 c5         1 MQZ       0.025700
     12 C07        -17.3990    -4.9820   -27.9560 c          1 MQZ       0.601100
     13 C09        -16.6160    -5.7350   -30.1800 c3         1 MQZ       0.026700
     14 C11        -18.9140    -5.9290   -31.1590 c3         1 MQZ      -0.040100
     15 C18        -12.8290    -3.2280   -32.1320 c3         1 MQZ      -0.048000
     16 C19        -11.3370    -2.9070   -32.0080 c3         1 MQZ      -0.090433
     17 C25        -15.0740    -3.2580   -27.2080 c          1 MQZ       0.557100
     18 C29         -9.7290    -4.7870   -28.4380 c3         1 MQZ      -0.030000
     19 C30         -9.3790    -3.3990   -28.9870 c3         1 MQZ      -0.087100
     20 C31         -9.7190    -4.7370   -26.9050 c3         1 MQZ      -0.087100
     21 C32         -8.6570    -5.7680   -28.9270 c3         1 MQZ      -0.087100
     22 C33        -11.5740    -6.5220   -28.3160 c          1 MQZ       0.603100
     23 C35        -12.7230    -7.5570   -26.4330 c3         1 MQZ       0.047700
     24 C36        -13.3880    -8.7910   -27.0530 c          1 MQZ       0.610100
     25 C38        -14.8510    -9.6800   -28.8060 c3         1 MQZ       0.087400
     26 C39        -16.3440    -9.6670   -28.5620 cc         1 MQZ       0.438700
     27 C41        -18.2420    -9.7230   -27.4230 cd         1 MQZ       0.294900
     28 C42        -18.7800    -9.6250   -28.6700 cc         1 MQZ      -0.257000
     29 C44        -14.5080    -9.6550   -30.2990 c3         1 MQZ      -0.154400
     30 C45        -13.0320    -9.7190   -30.6070 c          1 MQZ       0.606100
     31 C47        -10.9590   -10.6930   -30.0170 c3         1 MQZ       0.152900
     32 C50        -13.4770    -7.0150   -25.1890 c3         1 MQZ      -0.021400
     33 C51        -12.5530    -6.0950   -24.4110 ca         1 MQZ      -0.073300
     34 C52        -11.3840    -6.5860   -23.8240 ca         1 MQZ      -0.104500
     35 C53        -10.5340    -5.7470   -23.1140 ca         1 MQZ      -0.116000
     36 C54        -10.8390    -4.3940   -22.9780 ca         1 MQZ      -0.115000
     37 C55        -12.0020    -3.8950   -23.5550 ca         1 MQZ      -0.116000
     38 C56        -12.8500    -4.7410   -24.2640 ca         1 MQZ      -0.104500
     39 C57        -14.0580    -8.1070   -24.2860 c3         1 MQZ      -0.083100
     40 N05        -16.3520    -2.8360   -27.2780 n          1 MQZ      -0.434800
     41 N08        -17.0020    -4.7120   -29.2190 ns         1 MQZ      -0.502900
     42 N16        -14.6430    -4.5270   -31.0230 ns         1 MQZ      -0.507900
     43 N23        -13.7330    -2.6140   -29.1140 nu         1 MQZ      -0.896400
     44 N27        -12.0970    -4.1520   -28.6930 n2         1 MQZ      -0.679900
     45 N34        -12.5030    -6.4510   -27.3460 ns         1 MQZ      -0.491900
     46 N37        -14.2070    -8.5860   -28.0970 ns         1 MQZ      -0.485900
     47 N40        -16.8700    -9.7460   -27.3730 nd         1 MQZ      -0.614000
     48 O14        -21.3450    -6.3670   -32.1360 o          1 MQZ      -0.499000
     49 O26        -14.8070    -4.4130   -26.8610 o          1 MQZ      -0.594100
     50 O46        -12.3820   -10.5680   -29.8110 os         1 MQZ      -0.432100
     51 O48        -12.5030    -9.1020   -31.5060 o          1 MQZ      -0.498000
     52 O58        -11.0340    -7.5880   -28.6190 o          1 MQZ      -0.624100
     53 O59        -14.3380    -6.4600   -29.9220 o          1 MQZ      -0.589100
     54 O60        -17.7360    -6.0960   -27.5730 o          1 MQZ      -0.562100
     55 S12        -19.9350    -6.1840   -32.6420 s4         1 MQZ       0.174400
     56 S43        -17.5220    -9.5560   -29.8360 ss         1 MQZ      -0.114400
     57 H102       -17.0630    -6.4520   -32.1440 hc         1 MQZ       0.047200
     58 H101       -17.3120    -4.7190   -31.9590 hc         1 MQZ       0.047200
     59 H132       -20.5280    -4.4800   -34.1610 h1         1 MQZ       0.077033
     60 H133       -20.1600    -3.8010   -32.5420 h1         1 MQZ       0.077033
     61 H131       -18.8330    -4.3060   -33.6450 h1         1 MQZ       0.077033
     62 H171       -12.6670    -5.0770   -31.0820 h1         1 MQZ       0.103700
     63 H203       -13.3860    -1.2730   -31.3250 hc         1 MQZ       0.041478
     64 H201       -13.3450    -1.3650   -33.0840 hc         1 MQZ       0.041478
     65 H202       -14.6980    -2.0620   -32.2120 hc         1 MQZ       0.041478
     66 H213       -12.5240    -4.9530   -33.4270 hc         1 MQZ       0.041478
     67 H212       -14.1260    -4.2220   -33.5890 hc         1 MQZ       0.041478
     68 H211       -12.7180    -3.4170   -34.2850 hc         1 MQZ       0.041478
     69 H241       -13.0710    -2.5320   -27.1450 h1         1 MQZ       0.089200
     70 H242       -14.2360    -1.2770   -27.5950 h1         1 MQZ       0.089200
     71 H281       -11.0340    -5.4220   -30.0430 h1         1 MQZ       0.058700
     72 H013       -20.8260    -2.9690   -27.5220 hc         1 MQZ       0.048700
     73 H011       -19.8740    -4.0550   -28.5370 hc         1 MQZ       0.048700
     74 H021       -18.8750    -2.5020   -26.0970 hc         1 MQZ       0.064700
     75 H032       -18.9290    -0.8840   -27.8920 hc         1 MQZ       0.057700
     76 H031       -18.3760    -2.0760   -29.0690 hc         1 MQZ       0.057700
     77 H042       -16.2750    -1.0790   -28.4740 h1         1 MQZ       0.051200
     78 H041       -16.7750    -0.8220   -26.7950 h1         1 MQZ       0.051200
     79 H061       -17.3280    -4.2130   -26.0080 h1         1 MQZ       0.106700
     80 H091       -16.7740    -6.6940   -29.6930 h1         1 MQZ       0.121700
     81 H112       -19.3660    -5.1080   -30.6010 h1         1 MQZ       0.091700
     82 H111       -19.0440    -6.8520   -30.5930 h1         1 MQZ       0.091700
     83 H191       -11.1290    -2.3360   -31.1030 hc         1 MQZ       0.041478
     84 H192       -10.7390    -3.8200   -31.9830 hc         1 MQZ       0.041478
     85 H193       -11.0150    -2.3120   -32.8640 hc         1 MQZ       0.041478
     86 H302        -8.4000    -3.0960   -28.6090 hc         1 MQZ       0.038589
     87 H301        -9.3290    -3.4110   -30.0760 hc         1 MQZ       0.038589
     88 H303       -10.1110    -2.6500   -28.6850 hc         1 MQZ       0.038589
     89 H313        -8.7530    -4.3690   -26.5550 hc         1 MQZ       0.038589
     90 H311       -10.4950    -4.0720   -26.5250 hc         1 MQZ       0.038589
     91 H312        -9.8770    -5.7230   -26.4660 hc         1 MQZ       0.038589
     92 H322        -7.6720    -5.4100   -28.6190 hc         1 MQZ       0.038589
     93 H321        -8.8040    -6.7670   -28.5210 hc         1 MQZ       0.038589
     94 H323        -8.6640    -5.8410   -30.0180 hc         1 MQZ       0.038589
     95 H351       -11.7510    -7.9350   -26.1130 h1         1 MQZ       0.082700
     96 H381       -14.4650   -10.5970   -28.3630 h1         1 MQZ       0.119700
     97 H411       -18.8100    -9.7790   -26.5060 h4         1 MQZ       0.044100
     98 H421       -19.8170    -9.5860   -28.9580 h4         1 MQZ       0.160000
     99 H442       -14.8950    -8.7550   -30.7710 hc         1 MQZ       0.075200
    100 H441       -14.9680   -10.5200   -30.7850 hc         1 MQZ       0.075200
    101 H473       -10.6210   -11.4030   -29.2680 h1         1 MQZ       0.053367
    102 H471       -10.7570   -11.0700   -31.0190 h1         1 MQZ       0.053367
    103 H472       -10.4840    -9.7260   -29.8740 h1         1 MQZ       0.053367
    104 H501       -14.3080    -6.4160   -25.5630 hc         1 MQZ       0.075700
    105 H521       -11.1290    -7.6340   -23.9260 ha         1 MQZ       0.118000
    106 H531        -9.6310    -6.1460   -22.6700 ha         1 MQZ       0.107000
    107 H541       -10.1750    -3.7380   -22.4300 ha         1 MQZ       0.108000
    108 H551       -12.2480    -2.8450   -23.4600 ha         1 MQZ       0.107000
    109 H561       -13.7430    -4.3470   -24.7300 ha         1 MQZ       0.118000
    110 H572       -14.5350    -7.6400   -23.4230 hc         1 MQZ       0.046700
    111 H571       -14.8090    -8.6980   -24.8110 hc         1 MQZ       0.046700
    112 H573       -13.2860    -8.7860   -23.9240 hc         1 MQZ       0.046700
    113 H081       -16.7210    -3.7660   -29.4240 hn         1 MQZ       0.299500
    114 H161       -15.2990    -3.8650   -31.4090 hn         1 MQZ       0.310500
    115 H231       -14.4980    -2.3810   -29.7240 hn         1 MQZ       0.461000
    116 H341       -12.9750    -5.5660   -27.1890 hn         1 MQZ       0.355500
    117 H371       -14.2830    -7.6620   -28.5120 hn         1 MQZ       0.352500
    118 O49        -13.1610    -9.9000   -26.5680 o          1 MQZ      -0.613100
    119 C20        -13.6160    -1.9100   -32.1780 c3         1 MQZ      -0.090433
    120 C21        -13.0680    -4.0060   -33.4350 c3         1 MQZ      -0.090433
    121 C01        -19.9760    -3.6530   -27.5260 c3         1 MQZ      -0.086100
    122 H012       -20.2020    -4.4800   -26.8520 hc         1 MQZ       0.048700
@<TRIPOS>BOND
     1     1    13 1   
     2     1    14 1   
     3     1    57 1   
     4     1    58 1   
     5     2    55 1   
     6     2    59 1   
     7     2    60 1   
     8     2    61 1   
     9     3    13 1   
    10     3    42 1   
    11     3    53 2   
    12     4     5 1   
    13     4    15 1   
    14     4    42 1   
    15     4    62 1   
    16     5    43 1   
    17     5    44 2   
    18     6    17 1   
    19     6    43 1   
    20     6    69 1   
    21     6    70 1   
    22     7    18 1   
    23     7    22 1   
    24     7    44 1   
    25     7    71 1   
    26     8     9 1   
    27     8    11 1   
    28     8    74 1   
    29     8   121 1   
    30     9    10 1   
    31     9    75 1   
    32     9    76 1   
    33    10    40 1   
    34    10    77 1   
    35    10    78 1   
    36    11    12 1   
    37    11    40 1   
    38    11    79 1   
    39    12    41 1   
    40    12    54 2   
    41    13    41 1   
    42    13    80 1   
    43    14    55 1   
    44    14    81 1   
    45    14    82 1   
    46    15    16 1   
    47    15   119 1   
    48    15   120 1   
    49    16    83 1   
    50    16    84 1   
    51    16    85 1   
    52    17    40 1   
    53    17    49 2   
    54    18    19 1   
    55    18    20 1   
    56    18    21 1   
    57    19    86 1   
    58    19    87 1   
    59    19    88 1   
    60    20    89 1   
    61    20    90 1   
    62    20    91 1   
    63    21    92 1   
    64    21    93 1   
    65    21    94 1   
    66    22    45 1   
    67    22    52 2   
    68    23    24 1   
    69    23    32 1   
    70    23    45 1   
    71    23    95 1   
    72    24    46 1   
    73    24   118 2   
    74    25    26 1   
    75    25    29 1   
    76    25    46 1   
    77    25    96 1   
    78    26    47 2   
    79    26    56 1   
    80    27    28 2   
    81    27    47 1   
    82    27    97 1   
    83    28    56 1   
    84    28    98 1   
    85    29    30 1   
    86    29    99 1   
    87    29   100 1   
    88    30    50 1   
    89    30    51 2   
    90    31    50 1   
    91    31   101 1   
    92    31   102 1   
    93    31   103 1   
    94    32    33 1   
    95    32    39 1   
    96    32   104 1   
    97    33    34 ar  
    98    33    38 ar  
    99    34    35 ar  
   100    34   105 1   
   101    35    36 ar  
   102    35   106 1   
   103    36    37 ar  
   104    36   107 1   
   105    37    38 ar  
   106    37   108 1   
   107    38   109 1   
   108    39   110 1   
   109    39   111 1   
   110    39   112 1   
   111    41   113 1   
   112    42   114 1   
   113    43   115 1   
   114    45   116 1   
   115    46   117 1   
   116    48    55 2   
   117    63   119 1   
   118    64   119 1   
   119    65   119 1   
   120    66   120 1   
   121    67   120 1   
   122    68   120 1   
   123    72   121 1   
   124    73   121 1   
   125   121   122 1   
@<TRIPOS>SUBSTRUCTURE
     1 MQZ         1 TEMP              0 ****  ****    0 ROOT
