@<TRIPOS>MOLECULE
MR0
   84    86     1     0     0
SMALL
bcc


@<TRIPOS>ATOM
      1 N1           0.4590     1.9740     4.2020 ns         1 MR0      -0.563900
      2 C4          -0.7330     3.7750     3.1630 ca         1 MR0      -0.164600
      3 C5          -1.6840     2.9710     2.5450 ca         1 MR0      -0.063000
      4 C8           0.5510     3.2150     3.6910 c          1 MR0       0.694700
      5 C10         -4.6020     1.7080     3.4530 c3         1 MR0       0.098500
      6 C13         -3.8340     0.5480     4.0710 c3         1 MR0      -0.096400
      7 C15          1.5750     1.2300     4.7410 c3         1 MR0       0.077700
      8 C17          1.2040     0.6180     6.0960 c3         1 MR0      -0.051100
      9 C20          1.3910    -4.0690     1.4500 ca         1 MR0      -0.054300
     10 C21          2.6740    -4.4800     1.8130 ca         1 MR0      -0.145000
     11 C22          3.2500    -5.5660     1.1760 ca         1 MR0      -0.096000
     12 C24          1.2970    -5.8540    -0.1860 ca         1 MR0       0.139100
     13 C26          1.0510     3.5980     8.4000 ca         1 MR0       0.170400
     14 C28          0.6940     1.6590     7.0510 ca         1 MR0      -0.025300
     15 C           -2.8650     3.5220     2.0690 ca         1 MR0      -0.156600
     16 C1          -3.0910     4.8840     2.1990 ca         1 MR0      -0.024000
     17 C2          -2.1410     5.7010     2.8040 ca         1 MR0      -0.165600
     18 C3          -0.9590     5.1420     3.2760 ca         1 MR0      -0.046000
     19 O           -3.9460     2.8330     0.0990 o          1 MR0      -0.581100
     20 N           -4.5380     1.7580     2.0000 n          1 MR0      -0.471800
     21 C9          -5.4540     0.8870     1.2780 c3         1 MR0       0.098500
     22 C11         -6.8240     1.5140     1.0430 c3         1 MR0      -0.096400
     23 C12         -7.7550     0.5590     0.3100 c3         1 MR0      -0.091600
     24 C14         -4.0350     0.4850     5.5780 c3         1 MR0      -0.091600
     25 O1           1.5800     3.8680     3.6630 o          1 MR0      -0.600100
     26 C16          2.1020     0.1900     3.7390 c3         1 MR0       0.138100
     27 C18          1.0580    -0.8330     3.3200 c3         1 MR0       0.171800
     28 N2           1.6590    -1.8870     2.5320 n7         1 MR0      -0.815200
     29 C19          0.7180    -2.9190     2.1560 c3         1 MR0       0.208100
     30 C23          2.5770    -6.2630     0.1780 ca         1 MR0      -0.214000
     31 C25          0.7170    -4.7550     0.4520 ca         1 MR0      -0.163000
     32 O3           0.5520    -6.4470    -1.1390 os         1 MR0      -0.321900
     33 C27          1.5600     2.6160     7.5730 ca         1 MR0      -0.188500
     34 C29         -0.6580     1.7020     7.3760 ca         1 MR0      -0.188500
     35 C30         -1.1170     2.7090     8.2040 ca         1 MR0       0.170400
     36 C31         -0.2890     3.6760     8.7360 ca         1 MR0      -0.216000
     37 O2           2.5530     0.8150     2.5630 oh         1 MR0      -0.591800
     38 CO           1.0970    -7.5590    -1.8260 c3         1 MR0       0.126700
     39 N7A         -1.4270     7.9770     3.1620 nt         1 MR0      -0.665000
     40 O7B         -3.6160     7.5530     2.8280 o          1 MR0      -0.603100
     41 F30         -2.4230     2.7490     8.5040 f          1 MR0      -0.134400
     42 HN1         -0.4590     1.5710     4.2990 hn         1 MR0       0.314500
     43 H5          -1.4940     1.9160     2.3880 ha         1 MR0       0.142000
     44 H101        -5.6570     1.6330     3.7360 h1         1 MR0       0.054450
     45 H102        -4.2500     2.6510     3.8710 h1         1 MR0       0.054450
     46 H131        -4.1510    -0.3950     3.6180 hc         1 MR0       0.044700
     47 H132        -2.7700     0.6470     3.8410 hc         1 MR0       0.044700
     48 H15          2.3790     1.9510     4.9120 h1         1 MR0       0.081700
     49 H171         0.4480    -0.1620     5.9760 hc         1 MR0       0.061700
     50 H172         2.0910     0.1270     6.5020 hc         1 MR0       0.061700
     51 H21          3.2150    -3.9440     2.5820 ha         1 MR0       0.148000
     52 H22          4.2470    -5.8840     1.4550 ha         1 MR0       0.128000
     53 H1          -4.0100     5.3170     1.8290 ha         1 MR0       0.169000
     54 H3          -0.2070     5.7510     3.7610 ha         1 MR0       0.149000
     55 H91         -5.5640    -0.0320     1.8580 h1         1 MR0       0.054450
     56 H92         -5.0020     0.6040     0.3280 h1         1 MR0       0.054450
     57 H111        -7.2660     1.8000     2.0010 hc         1 MR0       0.044700
     58 H112        -6.7050     2.4330     0.4650 hc         1 MR0       0.044700
     59 H121        -7.9190    -0.3560     0.8810 hc         1 MR0       0.036367
     60 H122        -8.7280     1.0170     0.1340 hc         1 MR0       0.036367
     61 H123        -7.3440     0.2740    -0.6600 hc         1 MR0       0.036367
     62 H141        -5.0840     0.3170     5.8290 hc         1 MR0       0.036367
     63 H142        -3.4590    -0.3310     6.0150 hc         1 MR0       0.036367
     64 H143        -3.7260     1.4110     6.0650 hc         1 MR0       0.036367
     65 H16          2.9180    -0.3530     4.2380 h1         1 MR0       0.048700
     66 H181         0.2370    -0.3210     2.7900 h1         1 MR0       0.032200
     67 H182         0.6170    -1.2900     4.2090 h1         1 MR0       0.032200
     68 HN2          2.0710    -1.4900     1.6970 hn         1 MR0       0.378800
     69 H191        -0.1120    -2.5460     1.5360 h1         1 MR0       0.035700
     70 H192         0.2530    -3.2990     3.0730 h1         1 MR0       0.035700
     71 H23          3.0620    -7.1050    -0.2970 ha         1 MR0       0.134000
     72 H25         -0.2780    -4.4410     0.1530 ha         1 MR0       0.141000
     73 H27          2.6150     2.6020     7.3330 ha         1 MR0       0.153000
     74 H29         -1.3450     0.9580     6.9940 ha         1 MR0       0.153000
     75 H31         -0.6680     4.4570     9.3830 ha         1 MR0       0.171000
     76 HO2          3.3040     1.3820     2.7690 ho         1 MR0       0.417000
     77 HO1          2.0090    -7.2940    -2.3670 h1         1 MR0       0.040700
     78 HO2A         0.3440    -7.8780    -2.5420 h1         1 MR0       0.040700
     79 HO3          1.3150    -8.3870    -1.1470 h1         1 MR0       0.040700
     80 H7A1        -0.4740     7.6610     3.1280 hn         1 MR0       0.319000
     81 H7A2        -1.5820     8.9700     3.2270 hn         1 MR0       0.319000
     82 F26          1.8830     4.5150     8.8990 f          1 MR0      -0.134400
     83 C6          -3.8410     2.6760     1.3070 c          1 MR0       0.680700
     84 C7          -2.4610     7.1620     2.9320 c          1 MR0       0.684700
@<TRIPOS>BOND
     1     1     4 1   
     2     1     7 1   
     3     1    42 1   
     4     2     3 ar  
     5     2     4 1   
     6     2    18 ar  
     7     3    15 ar  
     8     3    43 1   
     9     4    25 2   
    10     5     6 1   
    11     5    20 1   
    12     5    44 1   
    13     5    45 1   
    14     6    24 1   
    15     6    46 1   
    16     6    47 1   
    17     7     8 1   
    18     7    26 1   
    19     7    48 1   
    20     8    14 1   
    21     8    49 1   
    22     8    50 1   
    23     9    10 ar  
    24     9    29 1   
    25     9    31 ar  
    26    10    11 ar  
    27    10    51 1   
    28    11    30 ar  
    29    11    52 1   
    30    12    30 ar  
    31    12    31 ar  
    32    12    32 1   
    33    13    33 ar  
    34    13    36 ar  
    35    13    82 1   
    36    14    33 ar  
    37    14    34 ar  
    38    15    16 ar  
    39    15    83 1   
    40    16    17 ar  
    41    16    53 1   
    42    17    18 ar  
    43    17    84 1   
    44    18    54 1   
    45    19    83 2   
    46    20    21 1   
    47    20    83 1   
    48    21    22 1   
    49    21    55 1   
    50    21    56 1   
    51    22    23 1   
    52    22    57 1   
    53    22    58 1   
    54    23    59 1   
    55    23    60 1   
    56    23    61 1   
    57    24    62 1   
    58    24    63 1   
    59    24    64 1   
    60    26    27 1   
    61    26    37 1   
    62    26    65 1   
    63    27    28 1   
    64    27    66 1   
    65    27    67 1   
    66    28    29 1   
    67    28    68 1   
    68    29    69 1   
    69    29    70 1   
    70    30    71 1   
    71    31    72 1   
    72    32    38 1   
    73    33    73 1   
    74    34    35 ar  
    75    34    74 1   
    76    35    36 ar  
    77    35    41 1   
    78    36    75 1   
    79    37    76 1   
    80    38    77 1   
    81    38    78 1   
    82    38    79 1   
    83    39    80 1   
    84    39    81 1   
    85    39    84 1   
    86    40    84 2   
@<TRIPOS>SUBSTRUCTURE
     1 MR0         1 TEMP              0 ****  ****    0 ROOT
