@<TRIPOS>MOLECULE
MR0
   84    86     1     0     0
SMALL
No Charge or Current Charge


@<TRIPOS>ATOM
      1 N1           0.4520     2.0380     4.1490 ns         1 MR0      -0.496900
      2 C4          -0.7980     3.9680     3.2880 ca         1 MR0      -0.164600
      3 C5          -1.7300     3.1370     2.6280 ca         1 MR0      -0.045000
      4 C8           0.4330     3.4060     3.9650 c          1 MR0       0.627700
      5 C10         -4.0020     1.0600     3.1740 c3         1 MR0       0.098500
      6 C13         -3.2350    -0.2540     3.4430 c3         1 MR0      -0.096400
      7 C15          1.4870     1.2890     4.8840 c3         1 MR0       0.077700
      8 C17          1.0660     1.0730     6.3630 c3         1 MR0      -0.051100
      9 C20          0.4840    -4.2740     2.0120 ca         1 MR0      -0.054300
     10 C21          1.0640    -5.4510     2.5240 ca         1 MR0      -0.127000
     11 C22          1.4930    -6.4680     1.6550 ca         1 MR0      -0.078000
     12 C24          0.7690    -5.1390    -0.2580 ca         1 MR0       0.139100
     13 C26          1.5600     4.3470     8.2980 ca         1 MR0       0.205500
     14 C28          0.7760     2.3780     7.0950 ca         1 MR0      -0.025300
     15 C           -2.9040     3.6720     2.0550 ca         1 MR0      -0.156600
     16 C1          -3.1050     5.0660     2.0900 ca         1 MR0      -0.006000
     17 C2          -2.1780     5.9230     2.7210 ca         1 MR0      -0.165600
     18 C3          -1.0290     5.3600     3.3220 ca         1 MR0      -0.028000
     19 O           -4.5330     3.2400     0.3810 o          1 MR0      -0.581100
     20 N           -4.0560     1.4390     1.7330 n          1 MR0      -0.404800
     21 C9          -4.7510     0.4920     0.8200 c3         1 MR0       0.098500
     22 C11         -6.2560     0.3010     1.1180 c3         1 MR0      -0.096400
     23 C12         -6.9590    -0.6000     0.0840 c3         1 MR0      -0.091600
     24 C14         -2.9370    -0.4840     4.9370 c3         1 MR0      -0.091600
     25 O1           1.3560     4.1180     4.3330 o          1 MR0      -0.600100
     26 C16          1.8880    -0.0310     4.1480 c3         1 MR0       0.161300
     27 C18          0.7530    -1.1020     4.1210 c3         1 MR0       0.171800
     28 N2           1.1250    -2.2650     3.2890 n7         1 MR0      -0.870400
     29 C19          0.0150    -3.1730     2.9540 c3         1 MR0       0.208100
     30 C23          1.3470    -6.3160     0.2650 ca         1 MR0      -0.196000
     31 C25          0.3420    -4.1270     0.6180 ca         1 MR0      -0.145000
     32 O3           0.6010    -4.9330    -1.6130 os         1 MR0      -0.345100
     33 C27          1.8280     3.1320     7.6490 ca         1 MR0      -0.170500
     34 C29         -0.5450     2.8560     7.2060 ca         1 MR0      -0.170500
     35 C30         -0.8030     4.0730     7.8550 ca         1 MR0       0.205500
     36 C31          0.2460     4.8220     8.4040 ca         1 MR0      -0.198000
     37 O2           2.2970     0.2670     2.7930 oh         1 MR0      -0.654000
     38 CO           1.0040    -5.9070    -2.5930 c3         1 MR0       0.149900
     39 N7A         -1.5470     8.2220     3.3400 nt         1 MR0      -0.598000
     40 O7B         -3.4400     7.9070     2.2380 o          1 MR0      -0.603100
     41 F30         -2.0710     4.5270     7.9490 f          1 MR0      -0.169500
     42 HN1         -0.3470     1.5280     3.8020 hn         1 MR0       0.314500
     43 H5          -1.5410     2.0720     2.5320 ha         1 MR0       0.124000
     44 H101        -5.0270     0.9530     3.5520 h1         1 MR0       0.054450
     45 H102        -3.5550     1.8640     3.7680 h1         1 MR0       0.054450
     46 H131        -3.8140    -1.1030     3.0610 hc         1 MR0       0.044700
     47 H132        -2.2890    -0.2400     2.8900 hc         1 MR0       0.044700
     48 H15          2.3930     1.9110     4.9100 h1         1 MR0       0.081700
     49 H171         0.1800     0.4300     6.4050 hc         1 MR0       0.061700
     50 H172         1.8620     0.5260     6.8840 hc         1 MR0       0.061700
     51 H21          1.1830    -5.5740     3.5990 ha         1 MR0       0.130000
     52 H22          1.9400    -7.3740     2.0600 ha         1 MR0       0.110000
     53 H1          -3.9980     5.4850     1.6270 ha         1 MR0       0.151000
     54 H3          -0.3070     5.9960     3.8280 ha         1 MR0       0.131000
     55 H91         -4.2510    -0.4840     0.8740 h1         1 MR0       0.054450
     56 H92         -4.6350     0.8360    -0.2160 h1         1 MR0       0.054450
     57 H111        -6.3850    -0.1420     2.1120 hc         1 MR0       0.044700
     58 H112        -6.7480     1.2810     1.1320 hc         1 MR0       0.044700
     59 H121        -6.5060    -1.5980     0.0670 hc         1 MR0       0.036367
     60 H122        -8.0220    -0.7090     0.3330 hc         1 MR0       0.036367
     61 H123        -6.8850    -0.1680    -0.9210 hc         1 MR0       0.036367
     62 H141        -3.8680    -0.5280     5.5160 hc         1 MR0       0.036367
     63 H142        -2.4000    -1.4300     5.0790 hc         1 MR0       0.036367
     64 H143        -2.3170     0.3260     5.3390 hc         1 MR0       0.036367
     65 H16          2.7360    -0.4690     4.6930 h1         1 MR0       0.048700
     66 H181        -0.1520    -0.6310     3.7170 h1         1 MR0       0.032200
     67 H182         0.5250    -1.4310     5.1440 h1         1 MR0       0.032200
     68 HN2          1.4930    -1.8760     2.4110 hn         1 MR0       0.434000
     69 H191        -0.8020    -2.6170     2.4730 h1         1 MR0       0.035700
     70 H192        -0.3950    -3.6290     3.8660 h1         1 MR0       0.035700
     71 H23          1.6870    -7.1170    -0.3850 ha         1 MR0       0.116000
     72 H25         -0.1020    -3.2230     0.2090 ha         1 MR0       0.123000
     73 H27          2.8550     2.7840     7.5700 ha         1 MR0       0.135000
     74 H29         -1.3710     2.2930     6.7810 ha         1 MR0       0.135000
     75 H31          0.0430     5.7640     8.9060 ha         1 MR0       0.153000
     76 HO2          2.9810     0.9700     2.8420 ho         1 MR0       0.456000
     77 HO1          2.0830    -6.0980    -2.5310 h1         1 MR0       0.040700
     78 HO2A         0.7800    -5.5440    -3.6030 h1         1 MR0       0.040700
     79 HO3          0.4680    -6.8530    -2.4450 h1         1 MR0       0.040700
     80 H7A1        -0.7150     7.8420     3.7620 hn         1 MR0       0.319000
     81 H7A2        -1.7200     9.2160     3.3560 hn         1 MR0       0.319000
     82 F26          2.5760     5.0650     8.8240 f          1 MR0      -0.169500
     83 C6          -3.9150     2.7970     1.3420 c          1 MR0       0.613700
     84 C7          -2.4460     7.4120     2.7410 c          1 MR0       0.617700
@<TRIPOS>BOND
     1     1     4 1   
     2     1     7 1   
     3     1    42 1   
     4     2     3 ar  
     5     2     4 1   
     6     2    18 ar  
     7     3    15 ar  
     8     3    43 1   
     9     4    25 2   
    10     5     6 1   
    11     5    20 1   
    12     5    44 1   
    13     5    45 1   
    14     6    24 1   
    15     6    46 1   
    16     6    47 1   
    17     7     8 1   
    18     7    26 1   
    19     7    48 1   
    20     8    14 1   
    21     8    49 1   
    22     8    50 1   
    23     9    10 ar  
    24     9    29 1   
    25     9    31 ar  
    26    10    11 ar  
    27    10    51 1   
    28    11    30 ar  
    29    11    52 1   
    30    12    30 ar  
    31    12    31 ar  
    32    12    32 1   
    33    13    33 ar  
    34    13    36 ar  
    35    13    82 1   
    36    14    33 ar  
    37    14    34 ar  
    38    15    16 ar  
    39    15    83 1   
    40    16    17 ar  
    41    16    53 1   
    42    17    18 ar  
    43    17    84 1   
    44    18    54 1   
    45    19    83 2   
    46    20    21 1   
    47    20    83 1   
    48    21    22 1   
    49    21    55 1   
    50    21    56 1   
    51    22    23 1   
    52    22    57 1   
    53    22    58 1   
    54    23    59 1   
    55    23    60 1   
    56    23    61 1   
    57    24    62 1   
    58    24    63 1   
    59    24    64 1   
    60    26    27 1   
    61    26    37 1   
    62    26    65 1   
    63    27    28 1   
    64    27    66 1   
    65    27    67 1   
    66    28    29 1   
    67    28    68 1   
    68    29    69 1   
    69    29    70 1   
    70    30    71 1   
    71    31    72 1   
    72    32    38 1   
    73    33    73 1   
    74    34    35 ar  
    75    34    74 1   
    76    35    36 ar  
    77    35    41 1   
    78    36    75 1   
    79    37    76 1   
    80    38    77 1   
    81    38    78 1   
    82    38    79 1   
    83    39    80 1   
    84    39    81 1   
    85    39    84 1   
    86    40    84 2   
@<TRIPOS>SUBSTRUCTURE
     1 MR0         1 TEMP              0 ****  ****    0 ROOT
