@<TRIPOS>MOLECULE
MR1
   20    21     1     0     0
SMALL
No Charge or Current Charge


@<TRIPOS>ATOM
      1 C36         -1.2990     0.2650     1.6320 ca         1 MR1      -0.096000
      2 C35         -1.4590     0.9140     2.8630 ca         1 MR1       0.053100
      3 O39         -2.5450     0.8230     3.6740 os         1 MR1      -0.345100
      4 C38         -2.1990     1.7290     4.7820 c5         1 MR1       0.373600
      5 O37         -0.8340     2.2450     4.5850 os         1 MR1      -0.343100
      6 C34         -0.4870     1.7220     3.3820 ca         1 MR1       0.055100
      7 C33          0.7200     1.9430     2.7090 ca         1 MR1      -0.096000
      8 C32          0.9120     1.3060     1.4630 ca         1 MR1      -0.101000
      9 C31         -0.0940     0.4660     0.9190 ca         1 MR1      -0.130300
     10 C30          0.1240    -0.2190    -0.4210 c3         1 MR1       0.192100
     11 N           -0.3530     0.6370    -1.5210 n8         1 MR1      -0.988200
     12 H36         -2.0870    -0.3760     1.2420 ha         1 MR1       0.132000
     13 H381        -2.2530     1.1850     5.7320 h2         1 MR1       0.065200
     14 H382        -2.9030     2.5700     4.7900 h2         1 MR1       0.065200
     15 H33          1.4850     2.5870     3.1350 ha         1 MR1       0.135000
     16 H32          1.8430     1.4640     0.9210 ha         1 MR1       0.120000
     17 H301         1.1940    -0.4310    -0.5630 h1         1 MR1       0.060200
     18 H302        -0.4170    -1.1770    -0.4450 h1         1 MR1       0.060200
     19 HN1          0.1210     1.5450    -1.4520 hn         1 MR1       0.395500
     20 HN2         -1.3370     0.8700    -1.3450 hn         1 MR1       0.395500
@<TRIPOS>BOND
     1     1     2 ar  
     2     1     9 ar  
     3     1    12 1   
     4     2     3 1   
     5     2     6 ar  
     6     3     4 1   
     7     4     5 1   
     8     4    13 1   
     9     4    14 1   
    10     5     6 1   
    11     6     7 ar  
    12     7     8 ar  
    13     7    15 1   
    14     8     9 ar  
    15     8    16 1   
    16     9    10 1   
    17    10    11 1   
    18    10    17 1   
    19    10    18 1   
    20    11    19 1   
    21    11    20 1   
@<TRIPOS>SUBSTRUCTURE
     1 MR1         1 TEMP              0 ****  ****    0 ROOT
