@<TRIPOS>MOLECULE
MR1
   20    21     1     0     0
SMALL
abcg2


@<TRIPOS>ATOM
      1 C36         -1.3090     0.4140     1.5630 ca         1 MR1      -0.096000
      2 C35         -1.4810     1.0530     2.7630 ca         1 MR1       0.053100
      3 O39         -2.5980     1.1280     3.5300 os         1 MR1      -0.345100
      4 C38         -2.1990     1.7380     4.7500 c5         1 MR1       0.373600
      5 O37         -0.9200     2.3140     4.5260 os         1 MR1      -0.343100
      6 C34         -0.4610     1.7720     3.3700 ca         1 MR1       0.055100
      7 C33          0.7810     1.8760     2.8000 ca         1 MR1      -0.096000
      8 C32          0.9680     1.2240     1.5730 ca         1 MR1      -0.101000
      9 C31         -0.0440     0.5040     0.9540 ca         1 MR1      -0.130300
     10 C30          0.1820    -0.1390    -0.3940 c3         1 MR1       0.192100
     11 N           -0.4890     0.5100    -1.5130 n8         1 MR1      -0.988200
     12 H36         -2.1150    -0.1450     1.1030 ha         1 MR1       0.132000
     13 H381        -2.1350     0.9820     5.5390 h2         1 MR1       0.065200
     14 H382        -2.9120     2.5160     5.0240 h2         1 MR1       0.065200
     15 H33          1.5790     2.4370     3.2670 ha         1 MR1       0.135000
     16 H32          1.9400     1.2820     1.0980 ha         1 MR1       0.120000
     17 H301         1.2550    -0.1590    -0.6000 h1         1 MR1       0.060200
     18 H302        -0.1430    -1.1820    -0.3670 h1         1 MR1       0.060200
     19 HN1         -0.2750     1.5000    -1.5040 hn         1 MR1       0.395500
     20 HN2         -1.4920     0.4410    -1.3990 hn         1 MR1       0.395500
@<TRIPOS>BOND
     1     1     2 ar  
     2     1     9 ar  
     3     1    12 1   
     4     2     3 1   
     5     2     6 ar  
     6     3     4 1   
     7     4     5 1   
     8     4    13 1   
     9     4    14 1   
    10     5     6 1   
    11     6     7 ar  
    12     7     8 ar  
    13     7    15 1   
    14     8     9 ar  
    15     8    16 1   
    16     9    10 1   
    17    10    11 1   
    18    10    17 1   
    19    10    18 1   
    20    11    19 1   
    21    11    20 1   
@<TRIPOS>SUBSTRUCTURE
     1 MR1         1 TEMP              0 ****  ****    0 ROOT
