@<TRIPOS>MOLECULE
MR2
   46    50     1     0     0
SMALL
No Charge or Current Charge


@<TRIPOS>ATOM
      1 C1          -0.1360     1.3150     2.3180 c          1 MR2       0.685700
      2 C2          -1.4780     1.1180     1.6610 ca         1 MR2      -0.176600
      3 C3          -2.6030     1.8060     2.1600 ca         1 MR2      -0.023000
      4 C4          -3.8810     1.5250     1.6600 ca         1 MR2      -0.109000
      5 C5          -4.0540     0.5480     0.6690 ca         1 MR2      -0.063000
      6 C6          -2.9390    -0.1410     0.1380 ca         1 MR2      -0.005000
      7 C7          -3.0800    -1.1400    -0.8640 ca         1 MR2      -0.147200
      8 C8          -1.9380    -1.8130    -1.3410 ca         1 MR2      -0.045000
      9 C9          -0.6630    -1.4720    -0.8700 ca         1 MR2      -0.094000
     10 C10         -0.5050    -0.4740     0.1140 ca         1 MR2      -0.066300
     11 C11         -1.6450     0.1660     0.6350 ca         1 MR2      -0.007000
     12 C12          0.9010     0.0220     0.5090 c6         1 MR2       0.368900
     13 C13          1.3760     1.2070    -0.3700 ca         1 MR2      -0.152300
     14 C14          2.5460     1.9090    -0.0020 ca         1 MR2      -0.042500
     15 C15          3.0110     2.9880    -0.7740 ca         1 MR2      -0.183500
     16 C16          2.3110     3.3790    -1.9240 ca         1 MR2       0.155600
     17 C17          1.1510     2.6930    -2.3030 ca         1 MR2      -0.183500
     18 C18          0.6810     1.6130    -1.5350 ca         1 MR2      -0.042500
     19 C19          1.9170    -1.1450     0.5130 ca         1 MR2      -0.152300
     20 C20          2.8440    -1.3240    -0.5410 ca         1 MR2      -0.042500
     21 C21          3.7430    -2.4060    -0.5240 ca         1 MR2      -0.183500
     22 C22          3.7220    -3.3220     0.5380 ca         1 MR2       0.155600
     23 C23          2.8000    -3.1630     1.5790 ca         1 MR2      -0.183500
     24 C24          1.8990    -2.0840     1.5680 ca         1 MR2      -0.042500
     25 N1          -4.4020    -1.5080    -1.4470 no         1 MR2       0.689200
     26 O1           0.8830     0.5370     1.8500 os         1 MR2      -0.440100
     27 O2           0.0280     2.0730     3.2630 o          1 MR2      -0.488000
     28 O3           2.7540     4.4230    -2.6780 oh         1 MR2      -0.528100
     29 O4           4.5890    -4.3720     0.5590 oh         1 MR2      -0.528100
     30 O5          -4.6620    -2.7130    -1.5550 o          1 MR2      -0.391000
     31 O6          -5.0620    -0.6120    -1.9880 o          1 MR2      -0.391000
     32 H3          -2.4960     2.5390     2.9590 ha         1 MR2       0.144000
     33 H4          -4.7460     2.0500     2.0610 ha         1 MR2       0.129000
     34 H5          -5.0650     0.3390     0.3330 ha         1 MR2       0.144000
     35 H8          -2.0320    -2.5780    -2.1100 ha         1 MR2       0.150000
     36 H9           0.2020    -1.9690    -1.3020 ha         1 MR2       0.142000
     37 H14          3.1020     1.6130     0.8860 ha         1 MR2       0.126250
     38 H15          3.9140     3.5120    -0.4710 ha         1 MR2       0.126000
     39 H17          0.6100     2.9970    -3.1960 ha         1 MR2       0.126000
     40 H18         -0.2220     1.1040    -1.8630 ha         1 MR2       0.126250
     41 H20          2.8720    -0.6360    -1.3840 ha         1 MR2       0.126250
     42 H21          4.4500    -2.5250    -1.3420 ha         1 MR2       0.126000
     43 H23          2.7790    -3.8770     2.3980 ha         1 MR2       0.126000
     44 H24          1.1830    -1.9820     2.3810 ha         1 MR2       0.126250
     45 HO3          3.5690     4.7790    -2.2660 ho         1 MR2       0.468500
     46 HO4          5.1540    -4.3230    -0.2410 ho         1 MR2       0.468500
@<TRIPOS>BOND
     1     1     2 1   
     2     1    26 1   
     3     1    27 2   
     4     2     3 ar  
     5     2    11 ar  
     6     3     4 ar  
     7     3    32 1   
     8     4     5 ar  
     9     4    33 1   
    10     5     6 ar  
    11     5    34 1   
    12     6     7 ar  
    13     6    11 ar  
    14     7     8 ar  
    15     7    25 1   
    16     8     9 ar  
    17     8    35 1   
    18     9    10 ar  
    19     9    36 1   
    20    10    11 ar  
    21    10    12 1   
    22    12    13 1   
    23    12    19 1   
    24    12    26 1   
    25    13    14 ar  
    26    13    18 ar  
    27    14    15 ar  
    28    14    37 1   
    29    15    16 ar  
    30    15    38 1   
    31    16    17 ar  
    32    16    28 1   
    33    17    18 ar  
    34    17    39 1   
    35    18    40 1   
    36    19    20 ar  
    37    19    24 ar  
    38    20    21 ar  
    39    20    41 1   
    40    21    22 ar  
    41    21    42 1   
    42    22    23 ar  
    43    22    29 1   
    44    23    24 ar  
    45    23    43 1   
    46    24    44 1   
    47    25    30 1   
    48    25    31 1   
    49    28    45 1   
    50    29    46 1   
@<TRIPOS>SUBSTRUCTURE
     1 MR2         1 TEMP              0 ****  ****    0 ROOT
