@<TRIPOS>MOLECULE
MR2
   46    50     1     0     0
SMALL
abcg2


@<TRIPOS>ATOM
      1 C1          -0.0920     1.2090     2.3460 c          1 MR2       0.685700
      2 C2          -1.3940     1.1330     1.6560 ca         1 MR2      -0.176600
      3 C3          -2.4470     1.8830     2.1140 ca         1 MR2      -0.023000
      4 C4          -3.7260     1.6850     1.5770 ca         1 MR2      -0.109000
      5 C5          -3.9510     0.7310     0.6200 ca         1 MR2      -0.063000
      6 C6          -2.8860    -0.0520     0.1140 ca         1 MR2      -0.005000
      7 C7          -3.0050    -1.0900    -0.8480 ca         1 MR2      -0.147200
      8 C8          -1.9370    -1.8430    -1.2460 ca         1 MR2      -0.045000
      9 C9          -0.6520    -1.5480    -0.7640 ca         1 MR2      -0.094000
     10 C10         -0.4690    -0.5370     0.1370 ca         1 MR2      -0.066300
     11 C11         -1.5840     0.1770     0.6310 ca         1 MR2      -0.007000
     12 C12          0.9040    -0.0420     0.5320 c6         1 MR2       0.368900
     13 C13          1.3070     1.1430    -0.3420 ca         1 MR2      -0.152300
     14 C14          2.3190     1.9950     0.0970 ca         1 MR2      -0.042500
     15 C15          2.7390     3.0660    -0.6710 ca         1 MR2      -0.183500
     16 C16          2.1570     3.3060    -1.9140 ca         1 MR2       0.155600
     17 C17          1.1550     2.4550    -2.3690 ca         1 MR2      -0.183500
     18 C18          0.7390     1.3900    -1.5870 ca         1 MR2      -0.042500
     19 C19          1.9250    -1.1620     0.5080 ca         1 MR2      -0.152300
     20 C20          2.9070    -1.2460    -0.4690 ca         1 MR2      -0.042500
     21 C21          3.8000    -2.3080    -0.5000 ca         1 MR2      -0.183500
     22 C22          3.7240    -3.3100     0.4600 ca         1 MR2       0.155600
     23 C23          2.7370    -3.2400     1.4440 ca         1 MR2      -0.183500
     24 C24          1.8500    -2.1810     1.4590 ca         1 MR2      -0.042500
     25 N1          -4.2790    -1.3870    -1.4850 no         1 MR2       0.689200
     26 O1           0.8840     0.4170     1.8990 os         1 MR2      -0.440100
     27 O2           0.1050     1.8720     3.3310 o          1 MR2      -0.488000
     28 O3           2.5230     4.3320    -2.7030 oh         1 MR2      -0.528100
     29 O4           4.5650    -4.3590     0.4880 oh         1 MR2      -0.528100
     30 O5          -4.5460    -2.5460    -1.6900 o          1 MR2      -0.391000
     31 O6          -4.9860    -0.4580    -1.8000 o          1 MR2      -0.391000
     32 H3          -2.3030     2.6040     2.9060 ha         1 MR2       0.144000
     33 H4          -4.5540     2.2740     1.9450 ha         1 MR2       0.129000
     34 H5          -4.9600     0.5880     0.2670 ha         1 MR2       0.144000
     35 H8          -2.0570    -2.6350    -1.9710 ha         1 MR2       0.150000
     36 H9           0.1880    -2.1100    -1.1470 ha         1 MR2       0.142000
     37 H14          2.8000     1.8290     1.0530 ha         1 MR2       0.126250
     38 H15          3.5250     3.7150    -0.3000 ha         1 MR2       0.126000
     39 H17          0.6960     2.6300    -3.3340 ha         1 MR2       0.126000
     40 H18         -0.0440     0.7540    -1.9770 ha         1 MR2       0.126250
     41 H20          2.9900    -0.4840    -1.2320 ha         1 MR2       0.126250
     42 H21          4.5570    -2.3470    -1.2740 ha         1 MR2       0.126000
     43 H23          2.6670    -4.0190     2.1930 ha         1 MR2       0.126000
     44 H24          1.0870    -2.1590     2.2260 ha         1 MR2       0.126250
     45 HO3          3.2090     4.8570    -2.2770 ho         1 MR2       0.468500
     46 HO4          5.1940    -4.3060    -0.2400 ho         1 MR2       0.468500
@<TRIPOS>BOND
     1     1     2 1   
     2     1    26 1   
     3     1    27 2   
     4     2     3 ar  
     5     2    11 ar  
     6     3     4 ar  
     7     3    32 1   
     8     4     5 ar  
     9     4    33 1   
    10     5     6 ar  
    11     5    34 1   
    12     6     7 ar  
    13     6    11 ar  
    14     7     8 ar  
    15     7    25 1   
    16     8     9 ar  
    17     8    35 1   
    18     9    10 ar  
    19     9    36 1   
    20    10    11 ar  
    21    10    12 1   
    22    12    13 1   
    23    12    19 1   
    24    12    26 1   
    25    13    14 ar  
    26    13    18 ar  
    27    14    15 ar  
    28    14    37 1   
    29    15    16 ar  
    30    15    38 1   
    31    16    17 ar  
    32    16    28 1   
    33    17    18 ar  
    34    17    39 1   
    35    18    40 1   
    36    19    20 ar  
    37    19    24 ar  
    38    20    21 ar  
    39    20    41 1   
    40    21    22 ar  
    41    21    42 1   
    42    22    23 ar  
    43    22    29 1   
    44    23    24 ar  
    45    23    43 1   
    46    24    44 1   
    47    25    30 1   
    48    25    31 1   
    49    28    45 1   
    50    29    46 1   
@<TRIPOS>SUBSTRUCTURE
     1 MR2         1 TEMP              0 ****  ****    0 ROOT
