@<TRIPOS>MOLECULE
MR3
   13    13     1     0     0
SMALL
No Charge or Current Charge


@<TRIPOS>ATOM
      1 CAA         -0.2250    -0.5100     4.5870 c3         1 MR3       0.056900
      2 NAF          0.2340    -0.2130     3.2230 na         1 MR3       0.024000
      3 CAD          1.4530     0.3900     2.9030 cc         1 MR3      -0.203000
      4 CAB          1.4810     0.4850     1.5390 cd         1 MR3      -0.180000
      5 CAC          0.2890    -0.0530     1.0210 cd         1 MR3      -0.180000
      6 CAE         -0.4880    -0.4860     2.0590 cc         1 MR3      -0.203000
      7 HAA1         0.6390    -0.7080     5.2330 h1         1 MR3       0.048367
      8 HAA2        -0.7830     0.3490     4.9790 h1         1 MR3       0.048367
      9 HAA3        -0.8760    -1.3920     4.5740 h1         1 MR3       0.048367
     10 HAD          2.1750     0.6910     3.6530 h4         1 MR3       0.140500
     11 HAB          2.2930     0.9080     0.9530 ha         1 MR3       0.130000
     12 HAC          0.0260    -0.1150    -0.0320 ha         1 MR3       0.130000
     13 HAE         -1.4670    -0.9520     2.0710 h4         1 MR3       0.140500
@<TRIPOS>BOND
     1     1     2 1   
     2     1     7 1   
     3     1     8 1   
     4     1     9 1   
     5     2     3 1   
     6     2     6 1   
     7     3     4 2   
     8     3    10 1   
     9     4     5 1   
    10     4    11 1   
    11     5     6 2   
    12     5    12 1   
    13     6    13 1   
@<TRIPOS>SUBSTRUCTURE
     1 MR3         1 TEMP              0 ****  ****    0 ROOT
