@<TRIPOS>MOLECULE
MR3
   13    13     1     0     0
SMALL
bcc


@<TRIPOS>ATOM
      1 CAA         -0.2230    -0.5040     4.5590 c3         1 MR3       0.027600
      2 NAF          0.2350    -0.2120     3.2200 na         1 MR3      -0.048100
      3 CAD          1.4550     0.2940     2.8920 cc         1 MR3      -0.170300
      4 CAB          1.5120     0.4390     1.5270 cd         1 MR3      -0.198000
      5 CAC          0.2670    -0.0010     1.0130 cd         1 MR3      -0.198000
      6 CAE         -0.4950    -0.3950     2.0860 cc         1 MR3      -0.170300
      7 HAA1         0.5800    -0.3040     5.2640 h1         1 MR3       0.048367
      8 HAA2        -1.0770     0.1170     4.8250 h1         1 MR3       0.048367
      9 HAA3        -0.5090    -1.5510     4.6510 h1         1 MR3       0.048367
     10 HAD          2.1880     0.5130     3.6520 h4         1 MR3       0.158500
     11 HAB          2.3530     0.8170     0.9660 ha         1 MR3       0.148000
     12 HAC         -0.0370    -0.0270    -0.0220 ha         1 MR3       0.148000
     13 HAE         -1.4970    -0.7910     2.1280 h4         1 MR3       0.158500
@<TRIPOS>BOND
     1     1     2 1   
     2     1     7 1   
     3     1     8 1   
     4     1     9 1   
     5     2     3 1   
     6     2     6 1   
     7     3     4 2   
     8     3    10 1   
     9     4     5 1   
    10     4    11 1   
    11     5     6 2   
    12     5    12 1   
    13     6    13 1   
@<TRIPOS>SUBSTRUCTURE
     1 MR3         1 TEMP              0 ****  ****    0 ROOT
