@<TRIPOS>MOLECULE
MR4
   31    33     1     0     0
SMALL
No Charge or Current Charge


@<TRIPOS>ATOM
      1 CAA         -3.5190     2.6210    -0.0160 c3         1 MR4      -0.041300
      2 CAL         -2.8300     1.2580    -0.0250 ca         1 MR4      -0.149300
      3 CAH         -1.4230     1.1900    -0.0080 ca         1 MR4      -0.030500
      4 CAO         -3.5840     0.0660    -0.0510 ca         1 MR4       0.165100
      5 OAC         -4.9490     0.1320    -0.0680 oh         1 MR4      -0.532100
      6 CAM         -2.9350    -1.1880    -0.0600 ca         1 MR4      -0.149300
      7 CAB         -3.7270    -2.4950    -0.0870 c3         1 MR4      -0.041300
      8 CAI         -1.5270    -1.2370    -0.0420 ca         1 MR4      -0.030500
      9 CAN         -0.7580    -0.0550    -0.0160 ca         1 MR4      -0.162900
     10 CAP          0.7110    -0.1240     0.0020 cc         1 MR4       0.607200
     11 OAK          1.4250     1.0710     0.0280 os         1 MR4      -0.281700
     12 CAR          2.7000     0.6150     0.0380 ca         1 MR4       0.027100
     13 CAG          3.8670     1.3890     0.0640 ca         1 MR4      -0.092000
     14 CAE          5.1040     0.7100     0.0710 ca         1 MR4      -0.096000
     15 CAD          5.1390    -0.7060     0.0520 ca         1 MR4      -0.126000
     16 CAF          3.9390    -1.4510     0.0260 ca         1 MR4      -0.050000
     17 CAQ          2.7250    -0.7490     0.0200 ca         1 MR4       0.062400
     18 NAJ          1.4440    -1.2540    -0.0040 nd         1 MR4      -0.582100
     19 HAA1        -4.1420     2.7520    -0.9080 hc         1 MR4       0.044533
     20 HAA2        -4.1650     2.7290     0.8640 hc         1 MR4       0.044533
     21 HAA3        -2.7970     3.4460     0.0040 hc         1 MR4       0.044533
     22 HAH         -0.8500     2.1150     0.0120 ha         1 MR4       0.133000
     23 HOAC        -5.2990    -0.7820    -0.0850 ho         1 MR4       0.470000
     24 HAB1        -4.3540    -2.5610    -0.9850 hc         1 MR4       0.044533
     25 HAB2        -3.0670    -3.3710    -0.0910 hc         1 MR4       0.044533
     26 HAB3        -4.3770    -2.5850     0.7920 hc         1 MR4       0.044533
     27 HAI         -1.0290    -2.2050    -0.0480 ha         1 MR4       0.133000
     28 HAG          3.8190     2.4750     0.0780 ha         1 MR4       0.133000
     29 HAE          6.0330     1.2760     0.0910 ha         1 MR4       0.117000
     30 HAD          6.0960    -1.2240     0.0580 ha         1 MR4       0.117000
     31 HAF          3.9530    -2.5380     0.0120 ha         1 MR4       0.132000
@<TRIPOS>BOND
     1     1     2 1   
     2     1    19 1   
     3     1    20 1   
     4     1    21 1   
     5     2     3 ar  
     6     2     4 ar  
     7     3     9 ar  
     8     3    22 1   
     9     4     5 1   
    10     4     6 ar  
    11     5    23 1   
    12     6     7 1   
    13     6     8 ar  
    14     7    24 1   
    15     7    25 1   
    16     7    26 1   
    17     8     9 ar  
    18     8    27 1   
    19     9    10 1   
    20    10    11 1   
    21    10    18 2   
    22    11    12 1   
    23    12    13 ar  
    24    12    17 ar  
    25    13    14 ar  
    26    13    28 1   
    27    14    15 ar  
    28    14    29 1   
    29    15    16 ar  
    30    15    30 1   
    31    16    17 ar  
    32    16    31 1   
    33    17    18 1   
@<TRIPOS>SUBSTRUCTURE
     1 MR4         1 TEMP              0 ****  ****    0 ROOT
