@<TRIPOS>MOLECULE
MR4
   31    33     1     0     0
SMALL
bcc


@<TRIPOS>ATOM
      1 CAA         -3.5050     2.5720    -0.0180 c3         1 MR4      -0.041300
      2 CAL         -2.7980     1.2490    -0.0240 ca         1 MR4      -0.149300
      3 CAH         -1.4150     1.1750    -0.0080 ca         1 MR4      -0.048500
      4 CAO         -3.5300     0.0560    -0.0480 ca         1 MR4       0.165100
      5 OAC         -4.8690     0.1750    -0.0620 oh         1 MR4      -0.493100
      6 CAM         -2.8950    -1.1940    -0.0570 ca         1 MR4      -0.149300
      7 CAB         -3.7000    -2.4610    -0.0860 c3         1 MR4      -0.041300
      8 CAI         -1.5120    -1.2270    -0.0400 ca         1 MR4      -0.048500
      9 CAN         -0.7570    -0.0560    -0.0150 ca         1 MR4      -0.162900
     10 CAP          0.6900    -0.1490     0.0020 cc         1 MR4       0.607200
     11 OAK          1.4000     1.0040     0.0290 os         1 MR4      -0.281700
     12 CAR          2.7000     0.6180     0.0400 ca         1 MR4       0.027100
     13 CAG          3.8360     1.4000     0.0660 ca         1 MR4      -0.110000
     14 CAE          5.0400     0.7060     0.0700 ca         1 MR4      -0.114000
     15 CAD          5.0820    -0.6930     0.0500 ca         1 MR4      -0.144000
     16 CAF          3.9240    -1.4560     0.0240 ca         1 MR4      -0.068000
     17 CAQ          2.7130    -0.7730     0.0180 ca         1 MR4       0.062400
     18 NAJ          1.4080    -1.2210    -0.0060 nd         1 MR4      -0.582100
     19 HAA1        -4.1310     2.6980    -0.9030 hc         1 MR4       0.044533
     20 HAA2        -4.1560     2.6770     0.8510 hc         1 MR4       0.044533
     21 HAA3        -2.7880     3.3910     0.0020 hc         1 MR4       0.044533
     22 HAH         -0.8510     2.0980     0.0100 ha         1 MR4       0.151000
     23 HOAC        -5.3000    -0.6860    -0.0830 ho         1 MR4       0.431000
     24 HAB1        -4.3250    -2.5300    -0.9810 hc         1 MR4       0.044533
     25 HAB2        -3.0470    -3.3310    -0.0860 hc         1 MR4       0.044533
     26 HAB3        -4.3560    -2.5530     0.7830 hc         1 MR4       0.044533
     27 HAI         -1.0080    -2.1850    -0.0460 ha         1 MR4       0.151000
     28 HAG          3.7990     2.4810     0.0810 ha         1 MR4       0.151000
     29 HAE          5.9680     1.2630     0.0920 ha         1 MR4       0.135000
     30 HAD          6.0440    -1.1890     0.0540 ha         1 MR4       0.135000
     31 HAF          3.9610    -2.5370     0.0080 ha         1 MR4       0.150000
@<TRIPOS>BOND
     1     1     2 1   
     2     1    19 1   
     3     1    20 1   
     4     1    21 1   
     5     2     3 ar  
     6     2     4 ar  
     7     3     9 ar  
     8     3    22 1   
     9     4     5 1   
    10     4     6 ar  
    11     5    23 1   
    12     6     7 1   
    13     6     8 ar  
    14     7    24 1   
    15     7    25 1   
    16     7    26 1   
    17     8     9 ar  
    18     8    27 1   
    19     9    10 1   
    20    10    11 1   
    21    10    18 2   
    22    11    12 1   
    23    12    13 ar  
    24    12    17 ar  
    25    13    14 ar  
    26    13    28 1   
    27    14    15 ar  
    28    14    29 1   
    29    15    16 ar  
    30    15    30 1   
    31    16    17 ar  
    32    16    31 1   
    33    17    18 1   
@<TRIPOS>SUBSTRUCTURE
     1 MR4         1 TEMP              0 ****  ****    0 ROOT
