@<TRIPOS>MOLECULE
MR5
   25    27     1     0     0
SMALL
No Charge or Current Charge


@<TRIPOS>ATOM
      1 CAH         -0.1410    -1.3370     0.0390 ca         1 MR5       0.010500
      2 CAL         -1.5460    -1.3080     0.0600 ca         1 MR5      -0.110900
      3 Br1         -2.5090    -2.9690     0.0380 br         1 MR5      -0.069600
      4 CAO         -2.2280    -0.0770     0.0970 ca         1 MR5       0.220100
      5 OAA         -3.5940    -0.0480     0.1170 oh         1 MR5      -0.500100
      6 CAM         -1.4950     1.1240     0.1120 ca         1 MR5      -0.110900
      7 Br2         -2.3880     2.8230     0.1620 br         1 MR5      -0.069600
      8 CAI         -0.0890     1.0950     0.0910 ca         1 MR5       0.010500
      9 CAN          0.6030    -0.1360     0.0540 ca         1 MR5      -0.163900
     10 CAP          2.0700    -0.1730     0.0320 cc         1 MR5       0.596200
     11 OAK          2.7590     1.0360     0.0490 os         1 MR5      -0.279700
     12 CAR          4.0430     0.6070     0.0210 ca         1 MR5       0.029100
     13 CAG          5.1930     1.4040     0.0210 ca         1 MR5      -0.091000
     14 CAE          6.4440     0.7510    -0.0110 ca         1 MR5      -0.092000
     15 CAD          6.5080    -0.6630    -0.0430 ca         1 MR5      -0.125000
     16 CAF          5.3230    -1.4330    -0.0420 ca         1 MR5      -0.046000
     17 CAQ          4.0950    -0.7560    -0.0100 ca         1 MR5       0.059400
     18 NAJ          2.8250    -1.2880    -0.0030 nd         1 MR5      -0.571100
     19 HAH          0.3680    -2.2990     0.0110 ha         1 MR5       0.153500
     20 HOAA        -3.8700     0.8930     0.1420 ho         1 MR5       0.490000
     21 HAI          0.4550     2.0380     0.1040 ha         1 MR5       0.153500
     22 HAG          5.1230     2.4890     0.0460 ha         1 MR5       0.134000
     23 HAE          7.3610     1.3360    -0.0120 ha         1 MR5       0.119000
     24 HAD          7.4750    -1.1610    -0.0680 ha         1 MR5       0.119000
     25 HAF          5.3590    -2.5190    -0.0670 ha         1 MR5       0.135000
@<TRIPOS>BOND
     1     1     2 ar  
     2     1     9 ar  
     3     1    19 1   
     4     2     3 1   
     5     2     4 ar  
     6     4     5 1   
     7     4     6 ar  
     8     5    20 1   
     9     6     7 1   
    10     6     8 ar  
    11     8     9 ar  
    12     8    21 1   
    13     9    10 1   
    14    10    11 1   
    15    10    18 2   
    16    11    12 1   
    17    12    13 ar  
    18    12    17 ar  
    19    13    14 ar  
    20    13    22 1   
    21    14    15 ar  
    22    14    23 1   
    23    15    16 ar  
    24    15    24 1   
    25    16    17 ar  
    26    16    25 1   
    27    17    18 1   
@<TRIPOS>SUBSTRUCTURE
     1 MR5         1 TEMP              0 ****  ****    0 ROOT
