@<TRIPOS>MOLECULE
MR5
   25    27     1     0     0
SMALL
bcc


@<TRIPOS>ATOM
      1 CAH         -0.1220    -1.3010     0.0400 ca         1 MR5      -0.007500
      2 CAL         -1.4990    -1.2630     0.0640 ca         1 MR5      -0.110900
      3 BR1         -2.4750    -2.8680     0.0520 br         1 MR5      -0.069600
      4 CAO         -2.2030    -0.0520     0.0990 ca         1 MR5       0.220100
      5 OAA         -3.5280    -0.1050     0.1210 oh         1 MR5      -0.461100
      6 CAM         -1.4460     1.1250     0.1070 ca         1 MR5      -0.110900
      7 BR2         -2.3340     2.7880     0.1510 br         1 MR5      -0.069600
      8 CAI         -0.0640     1.1040     0.0840 ca         1 MR5      -0.007500
      9 CAN          0.6080    -0.1140     0.0500 ca         1 MR5      -0.163900
     10 CAP          2.0590    -0.1820     0.0270 cc         1 MR5       0.596200
     11 OAK          2.7460     0.9800     0.0490 os         1 MR5      -0.279700
     12 CAR          4.0520     0.6130     0.0230 ca         1 MR5       0.029100
     13 CAG          5.1770     1.4120     0.0280 ca         1 MR5      -0.109000
     14 CAE          6.3890     0.7350    -0.0050 ca         1 MR5      -0.110000
     15 CAD          6.4510    -0.6640    -0.0420 ca         1 MR5      -0.143000
     16 CAF          5.3050    -1.4440    -0.0480 ca         1 MR5      -0.064000
     17 CAQ          4.0850    -0.7770    -0.0140 ca         1 MR5       0.059400
     18 NAJ          2.7850    -1.2440    -0.0100 nd         1 MR5      -0.571100
     19 HAH          0.4000    -2.2480     0.0130 ha         1 MR5       0.171500
     20 HOAA        -3.9350     0.7710     0.1470 ho         1 MR5       0.451000
     21 HAI          0.4840     2.0360     0.0930 ha         1 MR5       0.171500
     22 HAG          5.1240     2.4910     0.0560 ha         1 MR5       0.152000
     23 HAE          7.3090     1.3040    -0.0020 ha         1 MR5       0.137000
     24 HAD          7.4200    -1.1450    -0.0670 ha         1 MR5       0.137000
     25 HAF          5.3560    -2.5240    -0.0760 ha         1 MR5       0.153000
@<TRIPOS>BOND
     1     1     2 ar  
     2     1     9 ar  
     3     1    19 1   
     4     2     3 1   
     5     2     4 ar  
     6     4     5 1   
     7     4     6 ar  
     8     5    20 1   
     9     6     7 1   
    10     6     8 ar  
    11     8     9 ar  
    12     8    21 1   
    13     9    10 1   
    14    10    11 1   
    15    10    18 2   
    16    11    12 1   
    17    12    13 ar  
    18    12    17 ar  
    19    13    14 ar  
    20    13    22 1   
    21    14    15 ar  
    22    14    23 1   
    23    15    16 ar  
    24    15    24 1   
    25    16    17 ar  
    26    16    25 1   
    27    17    18 1   
@<TRIPOS>SUBSTRUCTURE
     1 MR5         1 TEMP              0 ****  ****    0 ROOT
