@<TRIPOS>MOLECULE
MR6
   30    32     1     0     0
SMALL
abcg2


@<TRIPOS>ATOM
      1 CAA          4.0150     2.5040     0.0230 c3         1 MR6      -0.046800
      2 CAL          3.2220     1.2300     0.0360 ca         1 MR6      -0.081300
      3 CAH          1.8340     1.2580     0.0400 ca         1 MR6      -0.072000
      4 CAG          3.8610    -0.0080     0.0150 ca         1 MR6      -0.091000
      5 CAM          3.1500    -1.2050    -0.0040 ca         1 MR6      -0.081300
      6 CAB          3.8690    -2.5220     0.0040 c3         1 MR6      -0.046800
      7 CAI          1.7610    -1.1550    -0.0070 ca         1 MR6      -0.072000
      8 CAN          1.1010     0.0730     0.0170 ca         1 MR6      -0.118900
      9 CAO         -0.3520     0.1490     0.0170 cc         1 MR6       0.597200
     10 OAK         -1.0480    -1.0110    -0.0110 os         1 MR6      -0.279700
     11 CAQ         -2.3520    -0.6400    -0.0060 ca         1 MR6       0.027100
     12 CAF         -3.4800    -1.4340    -0.0260 ca         1 MR6      -0.092000
     13 CAD         -4.6900    -0.7530    -0.0130 ca         1 MR6      -0.095000
     14 CAC         -4.7480     0.6460     0.0180 ca         1 MR6      -0.126000
     15 CAE         -3.5990     1.4210     0.0380 ca         1 MR6      -0.048000
     16 CAP         -2.3810     0.7510     0.0260 ca         1 MR6       0.059400
     17 NAJ         -1.0800     1.2130     0.0400 nd         1 MR6      -0.575100
     18 HAA1         4.1620     2.8580    -0.9990 hc         1 MR6       0.044367
     19 HAA2         3.5070     3.2970     0.5710 hc         1 MR6       0.044367
     20 HAA3         5.0020     2.3650     0.4640 hc         1 MR6       0.044367
     21 HAH          1.3120     2.2070     0.0590 ha         1 MR6       0.131500
     22 HAG          4.9450    -0.0410     0.0140 ha         1 MR6       0.112000
     23 HAB1         4.1290    -2.8170     1.0230 hc         1 MR6       0.044367
     24 HAB2         3.2530    -3.3170    -0.4160 hc         1 MR6       0.044367
     25 HAB3         4.7960    -2.4740    -0.5650 hc         1 MR6       0.044367
     26 HAI          1.1990    -2.0800    -0.0260 ha         1 MR6       0.131500
     27 HAF         -3.4310    -2.5140    -0.0500 ha         1 MR6       0.133000
     28 HAD         -5.6120    -1.3190    -0.0280 ha         1 MR6       0.117000
     29 HAC         -5.7150     1.1310     0.0270 ha         1 MR6       0.118000
     30 HAE         -3.6470     2.5020     0.0620 ha         1 MR6       0.133000
@<TRIPOS>BOND
     1     1     2 1   
     2     1    18 1   
     3     1    19 1   
     4     1    20 1   
     5     2     3 ar  
     6     2     4 ar  
     7     3     8 ar  
     8     3    21 1   
     9     4     5 ar  
    10     4    22 1   
    11     5     6 1   
    12     5     7 ar  
    13     6    23 1   
    14     6    24 1   
    15     6    25 1   
    16     7     8 ar  
    17     7    26 1   
    18     8     9 1   
    19     9    10 1   
    20     9    17 2   
    21    10    11 1   
    22    11    12 ar  
    23    11    16 ar  
    24    12    13 ar  
    25    12    27 1   
    26    13    14 ar  
    27    13    28 1   
    28    14    15 ar  
    29    14    29 1   
    30    15    16 ar  
    31    15    30 1   
    32    16    17 1   
@<TRIPOS>SUBSTRUCTURE
     1 MR6         1 TEMP              0 ****  ****    0 ROOT
