@<TRIPOS>MOLECULE
MR6
   30    32     1     0     0
SMALL
No Charge or Current Charge


@<TRIPOS>ATOM
      1 CAA          4.0550     2.5290     0.0280 c3         1 MR6      -0.046800
      2 CAL          3.2550     1.2350     0.0220 ca         1 MR6      -0.081300
      3 CAH          1.8480     1.2730     0.0190 ca         1 MR6      -0.072000
      4 CAG          3.9160    -0.0060     0.0110 ca         1 MR6      -0.091000
      5 CAM          3.1810    -1.2040     0.0010 ca         1 MR6      -0.081300
      6 CAB          3.9010    -2.5440    -0.0060 c3         1 MR6      -0.046800
      7 CAI          1.7740    -1.1580     0.0040 ca         1 MR6      -0.072000
      8 CAN          1.0900     0.0800     0.0120 ca         1 MR6      -0.118900
      9 CAO         -0.3810     0.1300     0.0120 cc         1 MR6       0.597200
     10 OAK         -1.0800    -1.0740     0.0040 os         1 MR6      -0.279700
     11 CAQ         -2.3610    -0.6350     0.0070 ca         1 MR6       0.027100
     12 CAF         -3.5170    -1.4250     0.0020 ca         1 MR6      -0.092000
     13 CAD         -4.7630    -0.7620     0.0070 ca         1 MR6      -0.095000
     14 CAC         -4.8170     0.6530     0.0160 ca         1 MR6      -0.126000
     15 CAE         -3.6270     1.4140     0.0210 ca         1 MR6      -0.048000
     16 CAP         -2.4040     0.7280     0.0160 ca         1 MR6       0.059400
     17 NAJ         -1.1290     1.2510     0.0200 nd         1 MR6      -0.575100
     18 HAA1         4.2230     2.8880    -0.9940 hc         1 MR6       0.044367
     19 HAA2         3.5310     3.3190     0.5790 hc         1 MR6       0.044367
     20 HAA3         5.0340     2.3930     0.5010 hc         1 MR6       0.044367
     21 HAH          1.3440     2.2370     0.0230 ha         1 MR6       0.131500
     22 HAG          5.0040    -0.0390     0.0110 ha         1 MR6       0.112000
     23 HAB1         4.0310    -2.9220     1.0150 hc         1 MR6       0.044367
     24 HAB2         3.3390    -3.2970    -0.5730 hc         1 MR6       0.044367
     25 HAB3         4.8940    -2.4640    -0.4630 hc         1 MR6       0.044367
     26 HAI          1.2170    -2.0920     0.0000 ha         1 MR6       0.131500
     27 HAF         -3.4550    -2.5100    -0.0050 ha         1 MR6       0.133000
     28 HAD         -5.6850    -1.3410     0.0030 ha         1 MR6       0.117000
     29 HAC         -5.7810     1.1580     0.0200 ha         1 MR6       0.118000
     30 HAE         -3.6560     2.5010     0.0280 ha         1 MR6       0.133000
@<TRIPOS>BOND
     1     1     2 1   
     2     1    18 1   
     3     1    19 1   
     4     1    20 1   
     5     2     3 ar  
     6     2     4 ar  
     7     3     8 ar  
     8     3    21 1   
     9     4     5 ar  
    10     4    22 1   
    11     5     6 1   
    12     5     7 ar  
    13     6    23 1   
    14     6    24 1   
    15     6    25 1   
    16     7     8 ar  
    17     7    26 1   
    18     8     9 1   
    19     9    10 1   
    20     9    17 2   
    21    10    11 1   
    22    11    12 ar  
    23    11    16 ar  
    24    12    13 ar  
    25    12    27 1   
    26    13    14 ar  
    27    13    28 1   
    28    14    15 ar  
    29    14    29 1   
    30    15    16 ar  
    31    15    30 1   
    32    16    17 1   
@<TRIPOS>SUBSTRUCTURE
     1 MR6         1 TEMP              0 ****  ****    0 ROOT
