@<TRIPOS>MOLECULE
MR8
  147   150     1     0     0
SMALL
abcg2


@<TRIPOS>ATOM
      1 O1           4.3550     9.8310    13.8380 os         1 MR8      -0.435100
      2 C1           4.6760     9.0660    12.8020 c          1 MR8       0.587100
      3 O2           5.1810     9.4600    11.7750 o          1 MR8      -0.492000
      4 C2           4.4060     7.5850    13.0800 c6         1 MR8       0.051700
      5 C3           4.0770     6.8000    11.8090 c6         1 MR8      -0.075400
      6 C4           2.6590     7.0830    11.3160 c6         1 MR8      -0.078400
      7 C5           1.6450     6.8200    12.4280 c6         1 MR8      -0.093400
      8 C6           1.9870     7.6300    13.6720 c6         1 MR8       0.098000
      9 N1           3.3720     7.3820    14.0920 n          1 MR8      -0.367800
     10 C7           3.7290     7.0070    15.3230 c          1 MR8       0.534100
     11 O3           4.8850     6.8440    15.7180 o          1 MR8      -0.606100
     12 C8           2.6420     6.6530    16.3390 c          1 MR8       0.495100
     13 O4           2.1710     5.5400    16.3440 o          1 MR8      -0.487100
     14 C9           2.2190     7.6910    17.4090 c6         1 MR8       0.319000
     15 C10          3.4010     8.3680    18.1170 c6         1 MR8      -0.063700
     16 C11          2.8900     9.5740    18.9100 c6         1 MR8      -0.071400
     17 C12          2.0750    10.5160    18.0270 c6         1 MR8      -0.104400
     18 C13          0.9550     9.7630    17.3270 c6         1 MR8       0.184300
     19 O5           1.4930     8.6190    16.6170 os         1 MR8      -0.505000
     20 O6           1.4050     7.0650    18.3550 oh         1 MR8      -0.656000
     21 C42          4.1990     7.4020    18.9850 c3         1 MR8      -0.084100
     22 C14          0.2130    10.5580    16.2640 c3         1 MR8      -0.071400
     23 C15         -0.4080    11.8580    16.7650 c3         1 MR8       0.204500
     24 O7          -1.4250    11.4960    17.7090 os         1 MR8      -0.459000
     25 C49         -1.9260    12.5980    18.4490 c3         1 MR8       0.142900
     26 C16         -0.9480    12.6990    15.6290 c2         1 MR8      -0.119400
     27 C43         -2.0210    12.0750    14.7850 c3         1 MR8      -0.058900
     28 C17         -0.4260    13.9210    15.4190 ce         1 MR8      -0.193000
     29 C18         -0.7180    14.8110    14.3230 ce         1 MR8      -0.172000
     30 C19         -0.0570    15.9670    14.1060 cf         1 MR8      -0.176000
     31 C20         -0.2090    16.7660    12.9140 cf         1 MR8      -0.190000
     32 C21          0.5340    17.8430    12.6250 c2         1 MR8      -0.197200
     33 C22          0.4850    18.6020    11.3350 c3         1 MR8      -0.031500
     34 C44          0.1330    20.0770    11.5680 c3         1 MR8      -0.084100
     35 C23          1.8390    18.5020    10.6010 c3         1 MR8      -0.063400
     36 C24          2.2720    17.0530    10.2860 c3         1 MR8      -0.165700
     37 C45          1.4010    16.3860     9.2260 c3         1 MR8      -0.076100
     38 C25          3.7290    17.0860     9.8780 c          1 MR8       0.551100
     39 O8           4.0820    17.2200     8.7250 o          1 MR8      -0.486100
     40 C26          4.7610    16.9990    11.0130 c3         1 MR8       0.076300
     41 O9           6.0140    17.5270    10.6410 os         1 MR8      -0.433000
     42 C50          6.0290    18.9490    10.5800 c3         1 MR8       0.141900
     43 C27          4.9920    15.5370    11.4600 c3         1 MR8       0.211500
     44 O10          5.2790    14.7790    10.3010 os         1 MR8      -0.442000
     45 C53          6.1670    13.6900    10.5170 c3         1 MR8       0.142900
     46 C28          3.8580    14.9840    12.3090 c2         1 MR8      -0.154400
     47 C46          3.6730    15.6820    13.6270 c3         1 MR8      -0.058900
     48 C29          3.1190    13.9660    11.8700 c2         1 MR8      -0.192200
     49 C30          1.9220    13.3450    12.5460 c3         1 MR8      -0.129500
     50 C47          0.7330    13.2700    11.5930 c3         1 MR8      -0.075100
     51 C31          2.2960    11.9800    13.1060 c          1 MR8       0.576100
     52 O11          1.7980    10.9500    12.6940 o          1 MR8      -0.518100
     53 C32          3.3330    11.9620    14.2110 c3         1 MR8      -0.191400
     54 C33          4.6190    11.2610    13.7760 c3         1 MR8       0.184300
     55 C34          5.8470    11.5710    14.6360 c3         1 MR8      -0.072700
     56 C48          5.6670    11.1710    16.1000 c3         1 MR8      -0.086100
     57 C35          6.2290    13.0500    14.4840 c3         1 MR8      -0.071400
     58 C36          7.6730    13.3950    14.8560 c6         1 MR8      -0.059700
     59 C37          8.6800    12.8040    13.8650 c6         1 MR8      -0.104400
     60 C38         10.1270    13.1550    14.2130 c6         1 MR8       0.174300
     61 O12         11.0330    12.6630    13.2240 os         1 MR8      -0.450000
     62 C51         11.3090    11.2770    13.3310 c3         1 MR8       0.147900
     63 C39         10.3130    14.6600    14.3110 c6         1 MR8       0.169300
     64 O13         11.6570    14.9140    14.7380 oh         1 MR8      -0.711000
     65 C40          9.3050    15.2720    15.2810 c6         1 MR8      -0.109400
     66 C41          7.8650    14.9130    14.9230 c6         1 MR8      -0.070400
     67 H1           5.3400     7.2140    13.5070 h1         1 MR8       0.106700
     68 H2           4.1800     5.7370    12.0430 hc         1 MR8       0.064700
     69 H3           4.8160     7.0430    11.0480 hc         1 MR8       0.064700
     70 H4           2.5820     8.1260    10.9920 hc         1 MR8       0.053200
     71 H5           2.4400     6.4610    10.4450 hc         1 MR8       0.053200
     72 H6           0.6370     7.0900    12.1070 hc         1 MR8       0.053200
     73 H7           1.6370     5.7550    12.6800 hc         1 MR8       0.053200
     74 H8           1.8860     8.6980    13.4700 h1         1 MR8       0.071700
     75 H9           1.3210     7.3930    14.4960 h1         1 MR8       0.071700
     76 H10          4.0480     8.7450    17.3230 hc         1 MR8       0.068700
     77 H11          3.7450    10.1020    19.3370 hc         1 MR8       0.052700
     78 H12          2.2770     9.2260    19.7470 hc         1 MR8       0.052700
     79 H13          2.7240    10.9780    17.2780 hc         1 MR8       0.046200
     80 H14          1.6490    11.3190    18.6300 hc         1 MR8       0.046200
     81 H15          0.2490     9.3910    18.0740 h1         1 MR8       0.069700
     82 H16          0.9610     6.3190    17.9210 ho         1 MR8       0.470000
     83 H17          5.0770     7.9100    19.3890 hc         1 MR8       0.045700
     84 H18          3.5970     7.0420    19.8200 hc         1 MR8       0.045700
     85 H19          4.5450     6.5400    18.4120 hc         1 MR8       0.045700
     86 H20         -0.5690     9.9260    15.8380 hc         1 MR8       0.065200
     87 H21          0.9070    10.7950    15.4570 hc         1 MR8       0.065200
     88 H22          0.3510    12.4510    17.2870 h1         1 MR8       0.033700
     89 H23         -2.6250    12.1990    19.1830 h1         1 MR8       0.032700
     90 H24         -1.1150    13.1230    18.9670 h1         1 MR8       0.032700
     91 H25         -2.4480    13.3130    17.8050 h1         1 MR8       0.032700
     92 H26         -2.7390    11.5500    15.4180 hc         1 MR8       0.050033
     93 H27         -2.5610    12.8080    14.1890 hc         1 MR8       0.050033
     94 H28         -1.5990    11.3330    14.1010 hc         1 MR8       0.050033
     95 H29          0.3430    14.2640    16.1070 ha         1 MR8       0.164000
     96 H30         -1.4530    14.4980    13.5890 ha         1 MR8       0.177000
     97 H31          0.6950    16.2870    14.8220 ha         1 MR8       0.165000
     98 H32         -0.9370    16.4190    12.1840 ha         1 MR8       0.173000
     99 H33          1.2720    18.1830    13.3500 ha         1 MR8       0.164000
    100 H34         -0.2880    18.1580    10.7040 hc         1 MR8       0.056700
    101 H35         -0.8450    20.1740    12.0420 hc         1 MR8       0.038033
    102 H36          0.8740    20.5530    12.2160 hc         1 MR8       0.038033
    103 H37          0.1120    20.6220    10.6210 hc         1 MR8       0.038033
    104 H38          2.5970    18.9880    11.2240 hc         1 MR8       0.045200
    105 H39          1.7850    19.0700     9.6690 hc         1 MR8       0.045200
    106 H40          2.2000    16.4860    11.2130 hc         1 MR8       0.068700
    107 H41          0.3680    16.3200     9.5680 hc         1 MR8       0.042367
    108 H42          1.4200    16.9510     8.2940 hc         1 MR8       0.042367
    109 H43          1.7510    15.3730     9.0210 hc         1 MR8       0.042367
    110 H44          4.3660    17.5540    11.8710 h1         1 MR8       0.046700
    111 H45          7.0480    19.2460    10.3420 h1         1 MR8       0.035033
    112 H46          5.3540    19.3250     9.8060 h1         1 MR8       0.035033
    113 H47          5.7400    19.3790    11.5460 h1         1 MR8       0.035033
    114 H48          5.8870    15.5820    12.0950 h1         1 MR8       0.053700
    115 H49          6.3770    13.2560     9.5410 h1         1 MR8       0.037033
    116 H50          7.1000    14.0370    10.9710 h1         1 MR8       0.037033
    117 H51          5.7230    12.9250    11.1590 h1         1 MR8       0.037033
    118 H52          4.6410    15.8910    14.0860 hc         1 MR8       0.042033
    119 H53          3.1640    16.6410    13.4990 hc         1 MR8       0.042033
    120 H54          3.0850    15.0970    14.3300 hc         1 MR8       0.042033
    121 H55          3.3550    13.5490    10.8980 ha         1 MR8       0.198000
    122 H56          1.6430    13.9450    13.4140 hc         1 MR8       0.071700
    123 H57         -0.1240    12.8060    12.0810 hc         1 MR8       0.045367
    124 H58          0.4500    14.2730    11.2760 hc         1 MR8       0.045367
    125 H59          0.9800    12.6850    10.7060 hc         1 MR8       0.045367
    126 H60          3.5670    12.9750    14.5230 hc         1 MR8       0.076700
    127 H61          2.9160    11.4360    15.0680 hc         1 MR8       0.076700
    128 H62          4.8500    11.5080    12.7430 h1         1 MR8       0.073700
    129 H63          6.6470    10.9600    14.2100 hc         1 MR8       0.064700
    130 H64          6.5950    11.3220    16.6530 hc         1 MR8       0.040367
    131 H65          4.8920    11.7720    16.5810 hc         1 MR8       0.040367
    132 H66          5.3910    10.1210    16.1920 hc         1 MR8       0.040367
    133 H67          5.5600    13.6520    15.1040 hc         1 MR8       0.040200
    134 H68          6.0620    13.3680    13.4530 hc         1 MR8       0.040200
    135 H69          7.8910    12.9900    15.8510 hc         1 MR8       0.052700
    136 H70          8.4650    13.1920    12.8630 hc         1 MR8       0.052200
    137 H71          8.5800    11.7200    13.8170 hc         1 MR8       0.052200
    138 H72         10.3920    12.7160    15.1850 h1         1 MR8       0.045700
    139 H73         12.0650    11.0420    12.5820 h1         1 MR8       0.030033
    140 H74         11.7000    11.0300    14.3250 h1         1 MR8       0.030033
    141 H75         10.4230    10.6620    13.1410 h1         1 MR8       0.030033
    142 H76         10.1610    15.0850    13.3100 h1         1 MR8       0.047700
    143 H77         11.7620    15.8700    14.8270 ho         1 MR8       0.498000
    144 H78          9.5360    14.9070    16.2870 hc         1 MR8       0.048200
    145 H79          9.4410    16.3570    15.2920 hc         1 MR8       0.048200
    146 H80          7.6010    15.3470    13.9520 hc         1 MR8       0.040700
    147 H81          7.1810    15.3440    15.6570 hc         1 MR8       0.040700
@<TRIPOS>BOND
     1     1     2 1   
     2     1    54 1   
     3     2     3 2   
     4     2     4 1   
     5     4     5 1   
     6     4     9 1   
     7     4    67 1   
     8     5     6 1   
     9     5    68 1   
    10     5    69 1   
    11     6     7 1   
    12     6    70 1   
    13     6    71 1   
    14     7     8 1   
    15     7    72 1   
    16     7    73 1   
    17     8     9 1   
    18     8    74 1   
    19     8    75 1   
    20     9    10 1   
    21    10    11 2   
    22    10    12 1   
    23    12    13 2   
    24    12    14 1   
    25    14    15 1   
    26    14    19 1   
    27    14    20 1   
    28    15    16 1   
    29    15    21 1   
    30    15    76 1   
    31    16    17 1   
    32    16    77 1   
    33    16    78 1   
    34    17    18 1   
    35    17    79 1   
    36    17    80 1   
    37    18    19 1   
    38    18    22 1   
    39    18    81 1   
    40    20    82 1   
    41    21    83 1   
    42    21    84 1   
    43    21    85 1   
    44    22    23 1   
    45    22    86 1   
    46    22    87 1   
    47    23    24 1   
    48    23    26 1   
    49    23    88 1   
    50    24    25 1   
    51    25    89 1   
    52    25    90 1   
    53    25    91 1   
    54    26    27 1   
    55    26    28 2   
    56    27    92 1   
    57    27    93 1   
    58    27    94 1   
    59    28    29 1   
    60    28    95 1   
    61    29    30 2   
    62    29    96 1   
    63    30    31 1   
    64    30    97 1   
    65    31    32 2   
    66    31    98 1   
    67    32    33 1   
    68    32    99 1   
    69    33    34 1   
    70    33    35 1   
    71    33   100 1   
    72    34   101 1   
    73    34   102 1   
    74    34   103 1   
    75    35    36 1   
    76    35   104 1   
    77    35   105 1   
    78    36    37 1   
    79    36    38 1   
    80    36   106 1   
    81    37   107 1   
    82    37   108 1   
    83    37   109 1   
    84    38    39 2   
    85    38    40 1   
    86    40    41 1   
    87    40    43 1   
    88    40   110 1   
    89    41    42 1   
    90    42   111 1   
    91    42   112 1   
    92    42   113 1   
    93    43    44 1   
    94    43    46 1   
    95    43   114 1   
    96    44    45 1   
    97    45   115 1   
    98    45   116 1   
    99    45   117 1   
   100    46    47 1   
   101    46    48 2   
   102    47   118 1   
   103    47   119 1   
   104    47   120 1   
   105    48    49 1   
   106    48   121 1   
   107    49    50 1   
   108    49    51 1   
   109    49   122 1   
   110    50   123 1   
   111    50   124 1   
   112    50   125 1   
   113    51    52 2   
   114    51    53 1   
   115    53    54 1   
   116    53   126 1   
   117    53   127 1   
   118    54    55 1   
   119    54   128 1   
   120    55    56 1   
   121    55    57 1   
   122    55   129 1   
   123    56   130 1   
   124    56   131 1   
   125    56   132 1   
   126    57    58 1   
   127    57   133 1   
   128    57   134 1   
   129    58    59 1   
   130    58    66 1   
   131    58   135 1   
   132    59    60 1   
   133    59   136 1   
   134    59   137 1   
   135    60    61 1   
   136    60    63 1   
   137    60   138 1   
   138    61    62 1   
   139    62   139 1   
   140    62   140 1   
   141    62   141 1   
   142    63    64 1   
   143    63    65 1   
   144    63   142 1   
   145    64   143 1   
   146    65    66 1   
   147    65   144 1   
   148    65   145 1   
   149    66   146 1   
   150    66   147 1   
@<TRIPOS>SUBSTRUCTURE
     1 MR8         1 TEMP              0 ****  ****    0 ROOT
