@<TRIPOS>MOLECULE
MR8
  147   150     1     0     0
SMALL
No Charge or Current Charge


@<TRIPOS>ATOM
      1 O1           3.7790     9.0610    12.3360 os         1 MR8      -0.435100
      2 C1           4.4880     8.0210    12.8880 c          1 MR8       0.587100
      3 O2           5.6460     8.1190    13.2730 o          1 MR8      -0.492000
      4 C2           3.6500     6.7250    13.1100 c6         1 MR8       0.051700
      5 C3           2.5670     6.4980    12.0040 c6         1 MR8      -0.075400
      6 C4           1.2460     7.2600    12.2460 c6         1 MR8      -0.078400
      7 C5           0.7110     6.9240    13.6440 c6         1 MR8      -0.093400
      8 C6           1.7550     7.2410    14.7340 c6         1 MR8       0.098000
      9 N1           3.0870     6.5980    14.5050 n          1 MR8      -0.367800
     10 C7           3.9130     6.1890    15.5910 c          1 MR8       0.534100
     11 O3           5.0470     5.7620    15.3810 o          1 MR8      -0.606100
     12 C8           3.3320     6.2360    17.0720 c          1 MR8       0.495100
     13 O4           2.6340     5.3140    17.5080 o          1 MR8      -0.487100
     14 C9           3.5180     7.5950    17.8560 c6         1 MR8       0.319000
     15 C10          4.9280     8.2560    17.6410 c6         1 MR8      -0.063700
     16 C11          4.9660     9.6840    18.2490 c6         1 MR8      -0.071400
     17 C12          3.8090    10.5380    17.6970 c6         1 MR8      -0.104400
     18 C13          2.4470     9.8320    17.9250 c6         1 MR8       0.184300
     19 O5           2.4990     8.4970    17.3740 os         1 MR8      -0.505000
     20 O6           3.2530     7.4030    19.2540 oh         1 MR8      -0.656000
     21 C42          6.0980     7.3950    18.2070 c3         1 MR8      -0.084100
     22 C14          1.2770    10.5130    17.1650 c3         1 MR8      -0.071400
     23 C15          0.9630    11.9820    17.5330 c3         1 MR8       0.204500
     24 O7           0.2210    11.9800    18.7690 os         1 MR8      -0.459000
     25 C49          0.0080    13.2750    19.3610 c3         1 MR8       0.142900
     26 C16          0.1630    12.6950    16.4360 c2         1 MR8      -0.119400
     27 C43         -1.1320    11.9890    16.0440 c3         1 MR8      -0.058900
     28 C17          0.6250    13.8230    15.8430 ce         1 MR8      -0.193000
     29 C18          0.0070    14.5170    14.7030 ce         1 MR8      -0.172000
     30 C19          0.4180    15.7290    14.2470 cf         1 MR8      -0.176000
     31 C20         -0.1010    16.3960    13.0610 cf         1 MR8      -0.190000
     32 C21          0.3440    17.5990    12.6350 c2         1 MR8      -0.197200
     33 C22         -0.0920    18.3190    11.3710 c3         1 MR8      -0.031500
     34 C44         -1.0990    19.4360    11.7140 c3         1 MR8      -0.084100
     35 C23          1.1350    18.8750    10.5970 c3         1 MR8      -0.063400
     36 C24          2.1110    17.7840    10.0620 c3         1 MR8      -0.165700
     37 C45          1.6540    17.1880     8.7080 c3         1 MR8      -0.076100
     38 C25          3.5570    18.3320    10.0120 c          1 MR8       0.551100
     39 O8           3.9540    18.9830     9.0490 o          1 MR8      -0.486100
     40 C26          4.3830    18.1910    11.3260 c3         1 MR8       0.076300
     41 O9           5.3580    19.2590    11.5060 os         1 MR8      -0.433000
     42 C50          4.8050    20.5650    11.7590 c3         1 MR8       0.141900
     43 C27          5.1400    16.8330    11.4310 c3         1 MR8       0.211500
     44 O10          6.0200    16.7090    10.2910 os         1 MR8      -0.442000
     45 C53          7.1030    15.7720    10.4480 c3         1 MR8       0.142900
     46 C28          4.2190    15.6040    11.5240 c2         1 MR8      -0.154400
     47 C46          3.6470    15.4460    12.9300 c3         1 MR8      -0.058900
     48 C29          3.9710    14.7740    10.4840 c2         1 MR8      -0.192200
     49 C30          3.1260    13.4990    10.4420 c3         1 MR8      -0.129500
     50 C47          2.0730    13.5700     9.3140 c3         1 MR8      -0.075100
     51 C31          3.9830    12.2160    10.2800 c          1 MR8       0.576100
     52 O11          4.9620    12.1830     9.5450 o          1 MR8      -0.518100
     53 C32          3.4620    10.9370    10.9440 c3         1 MR8      -0.191400
     54 C33          4.4290    10.2960    11.9720 c3         1 MR8       0.184300
     55 C34          4.7480    11.1380    13.2600 c3         1 MR8      -0.072700
     56 C48          3.4760    11.6450    13.9870 c3         1 MR8      -0.086100
     57 C35          5.7780    12.2750    12.9790 c3         1 MR8      -0.071400
     58 C36          6.5470    12.8790    14.2020 c6         1 MR8      -0.059700
     59 C37          7.4970    11.8440    14.8860 c6         1 MR8      -0.104400
     60 C38          8.3380    12.4680    16.0420 c6         1 MR8       0.174300
     61 O12          9.2800    11.5070    16.5860 os         1 MR8      -0.450000
     62 C51          8.7520    10.3790    17.3060 c3         1 MR8       0.147900
     63 C39          9.1040    13.7450    15.5560 c6         1 MR8       0.169300
     64 O13          9.8260    14.3760    16.6310 oh         1 MR8      -0.711000
     65 C40          8.1310    14.7640    14.9210 c6         1 MR8      -0.109400
     66 C41          7.3590    14.1230    13.7480 c6         1 MR8      -0.070400
     67 H1           4.3900     5.9250    12.9690 h1         1 MR8       0.106700
     68 H2           2.3420     5.4240    11.9590 hc         1 MR8       0.064700
     69 H3           2.9750     6.7560    11.0170 hc         1 MR8       0.064700
     70 H4           1.3870     8.3440    12.1480 hc         1 MR8       0.053200
     71 H5           0.5070     6.9760    11.4850 hc         1 MR8       0.053200
     72 H6          -0.2120     7.4870    13.8390 hc         1 MR8       0.053200
     73 H7           0.4440     5.8590    13.6930 hc         1 MR8       0.053200
     74 H8           1.8980     8.3300    14.7840 h1         1 MR8       0.071700
     75 H9           1.3280     6.9250    15.6950 h1         1 MR8       0.071700
     76 H10          5.1140     8.3560    16.5630 hc         1 MR8       0.068700
     77 H11          5.9200    10.1720    18.0150 hc         1 MR8       0.052700
     78 H12          4.9010     9.6350    19.3450 hc         1 MR8       0.052700
     79 H13          3.9680    10.7020    16.6260 hc         1 MR8       0.046200
     80 H14          3.8210    11.5230    18.1800 hc         1 MR8       0.046200
     81 H15          2.2110     9.7860    18.9980 h1         1 MR8       0.069700
     82 H16          2.3460     7.0310    19.2940 ho         1 MR8       0.470000
     83 H17          7.0690     7.8480    17.9750 hc         1 MR8       0.045700
     84 H18          6.0340     7.2980    19.2980 hc         1 MR8       0.045700
     85 H19          6.1050     6.3830    17.7880 hc         1 MR8       0.045700
     86 H20          0.3680     9.9160    17.3020 hc         1 MR8       0.065200
     87 H21          1.4950    10.4760    16.0930 hc         1 MR8       0.065200
     88 H22          1.9110    12.5180    17.6690 h1         1 MR8       0.033700
     89 H23         -0.5200    13.1730    20.3170 h1         1 MR8       0.032700
     90 H24          0.9640    13.7790    19.5520 h1         1 MR8       0.032700
     91 H25         -0.5990    13.9140    18.7070 h1         1 MR8       0.032700
     92 H26         -1.5910    11.4730    16.8950 hc         1 MR8       0.050033
     93 H27         -1.8830    12.6920    15.6690 hc         1 MR8       0.050033
     94 H28         -0.9510    11.2430    15.2610 hc         1 MR8       0.050033
     95 H29          1.5610    14.2590    16.1980 ha         1 MR8       0.164000
     96 H30         -0.7950    14.0060    14.1690 ha         1 MR8       0.177000
     97 H31          1.2230    16.2340    14.7840 ha         1 MR8       0.165000
     98 H32         -0.8620    15.8690    12.4800 ha         1 MR8       0.173000
     99 H33          1.1070    18.1210    13.2160 ha         1 MR8       0.164000
    100 H34         -0.6090    17.6100    10.7120 hc         1 MR8       0.056700
    101 H35         -1.9710    19.0200    12.2340 hc         1 MR8       0.038033
    102 H36         -0.6400    20.1900    12.3640 hc         1 MR8       0.038033
    103 H37         -1.4530    19.9340    10.8040 hc         1 MR8       0.038033
    104 H38          1.6790    19.5530    11.2680 hc         1 MR8       0.045200
    105 H39          0.7950    19.4960     9.7580 hc         1 MR8       0.045200
    106 H40          2.1070    16.9860    10.8090 hc         1 MR8       0.068700
    107 H41          0.6690    16.7150     8.8010 hc         1 MR8       0.042367
    108 H42          1.5860    17.9660     7.9380 hc         1 MR8       0.042367
    109 H43          2.3660    16.4300     8.3610 hc         1 MR8       0.042367
    110 H44          3.6640    18.2290    12.1530 h1         1 MR8       0.046700
    111 H45          5.6100    21.2960    11.9070 h1         1 MR8       0.035033
    112 H46          4.1880    20.9070    10.9190 h1         1 MR8       0.035033
    113 H47          4.1840    20.5560    12.6640 h1         1 MR8       0.035033
    114 H48          5.7400    16.8830    12.3490 h1         1 MR8       0.053700
    115 H49          7.7080    15.7340     9.5340 h1         1 MR8       0.037033
    116 H50          7.7580    16.0720    11.2770 h1         1 MR8       0.037033
    117 H51          6.7300    14.7600    10.6510 h1         1 MR8       0.037033
    118 H52          4.4350    15.2550    13.6660 hc         1 MR8       0.042033
    119 H53          3.1260    16.3560    13.2480 hc         1 MR8       0.042033
    120 H54          2.9230    14.6340    13.0190 hc         1 MR8       0.042033
    121 H55          4.4320    14.9850     9.5160 ha         1 MR8       0.198000
    122 H56          2.5290    13.3780    11.3490 hc         1 MR8       0.071700
    123 H57          1.4810    12.6480     9.2750 hc         1 MR8       0.045367
    124 H58          1.3820    14.4030     9.4880 hc         1 MR8       0.045367
    125 H59          2.5510    13.7120     8.3370 hc         1 MR8       0.045367
    126 H60          2.4920    11.1200    11.4180 hc         1 MR8       0.076700
    127 H61          3.3100    10.2050    10.1430 hc         1 MR8       0.076700
    128 H62          5.3730    10.0710    11.4540 h1         1 MR8       0.073700
    129 H63          5.2330    10.4590    13.9640 hc         1 MR8       0.064700
    130 H64          3.7290    12.1640    14.9170 hc         1 MR8       0.040367
    131 H65          2.9080    12.3450    13.3690 hc         1 MR8       0.040367
    132 H66          2.8190    10.8030    14.2330 hc         1 MR8       0.040367
    133 H67          5.2550    13.0850    12.4640 hc         1 MR8       0.040200
    134 H68          6.5190    11.9020    12.2610 hc         1 MR8       0.040200
    135 H69          5.7950    13.2090    14.9320 hc         1 MR8       0.052700
    136 H70          8.1740    11.4120    14.1360 hc         1 MR8       0.052200
    137 H71          6.9020    11.0150    15.2870 hc         1 MR8       0.052200
    138 H72          7.6510    12.7700    16.8470 h1         1 MR8       0.045700
    139 H73          9.5710     9.7600    17.6920 h1         1 MR8       0.030033
    140 H74          8.1510    10.7140    18.1610 h1         1 MR8       0.030033
    141 H75          8.1300     9.7470    16.6610 h1         1 MR8       0.030033
    142 H76          9.8130    13.4260    14.7770 h1         1 MR8       0.047700
    143 H77         10.4090    15.0540    16.2190 ho         1 MR8       0.498000
    144 H78          7.4210    15.1320    15.6760 hc         1 MR8       0.048200
    145 H79          8.6860    15.6390    14.5570 hc         1 MR8       0.048200
    146 H80          8.0650    13.8400    12.9540 hc         1 MR8       0.040700
    147 H81          6.6890    14.8710    13.3080 hc         1 MR8       0.040700
@<TRIPOS>BOND
     1     1     2 1   
     2     1    54 1   
     3     2     3 2   
     4     2     4 1   
     5     4     5 1   
     6     4     9 1   
     7     4    67 1   
     8     5     6 1   
     9     5    68 1   
    10     5    69 1   
    11     6     7 1   
    12     6    70 1   
    13     6    71 1   
    14     7     8 1   
    15     7    72 1   
    16     7    73 1   
    17     8     9 1   
    18     8    74 1   
    19     8    75 1   
    20     9    10 1   
    21    10    11 2   
    22    10    12 1   
    23    12    13 2   
    24    12    14 1   
    25    14    15 1   
    26    14    19 1   
    27    14    20 1   
    28    15    16 1   
    29    15    21 1   
    30    15    76 1   
    31    16    17 1   
    32    16    77 1   
    33    16    78 1   
    34    17    18 1   
    35    17    79 1   
    36    17    80 1   
    37    18    19 1   
    38    18    22 1   
    39    18    81 1   
    40    20    82 1   
    41    21    83 1   
    42    21    84 1   
    43    21    85 1   
    44    22    23 1   
    45    22    86 1   
    46    22    87 1   
    47    23    24 1   
    48    23    26 1   
    49    23    88 1   
    50    24    25 1   
    51    25    89 1   
    52    25    90 1   
    53    25    91 1   
    54    26    27 1   
    55    26    28 2   
    56    27    92 1   
    57    27    93 1   
    58    27    94 1   
    59    28    29 1   
    60    28    95 1   
    61    29    30 2   
    62    29    96 1   
    63    30    31 1   
    64    30    97 1   
    65    31    32 2   
    66    31    98 1   
    67    32    33 1   
    68    32    99 1   
    69    33    34 1   
    70    33    35 1   
    71    33   100 1   
    72    34   101 1   
    73    34   102 1   
    74    34   103 1   
    75    35    36 1   
    76    35   104 1   
    77    35   105 1   
    78    36    37 1   
    79    36    38 1   
    80    36   106 1   
    81    37   107 1   
    82    37   108 1   
    83    37   109 1   
    84    38    39 2   
    85    38    40 1   
    86    40    41 1   
    87    40    43 1   
    88    40   110 1   
    89    41    42 1   
    90    42   111 1   
    91    42   112 1   
    92    42   113 1   
    93    43    44 1   
    94    43    46 1   
    95    43   114 1   
    96    44    45 1   
    97    45   115 1   
    98    45   116 1   
    99    45   117 1   
   100    46    47 1   
   101    46    48 2   
   102    47   118 1   
   103    47   119 1   
   104    47   120 1   
   105    48    49 1   
   106    48   121 1   
   107    49    50 1   
   108    49    51 1   
   109    49   122 1   
   110    50   123 1   
   111    50   124 1   
   112    50   125 1   
   113    51    52 2   
   114    51    53 1   
   115    53    54 1   
   116    53   126 1   
   117    53   127 1   
   118    54    55 1   
   119    54   128 1   
   120    55    56 1   
   121    55    57 1   
   122    55   129 1   
   123    56   130 1   
   124    56   131 1   
   125    56   132 1   
   126    57    58 1   
   127    57   133 1   
   128    57   134 1   
   129    58    59 1   
   130    58    66 1   
   131    58   135 1   
   132    59    60 1   
   133    59   136 1   
   134    59   137 1   
   135    60    61 1   
   136    60    63 1   
   137    60   138 1   
   138    61    62 1   
   139    62   139 1   
   140    62   140 1   
   141    62   141 1   
   142    63    64 1   
   143    63    65 1   
   144    63   142 1   
   145    64   143 1   
   146    65    66 1   
   147    65   144 1   
   148    65   145 1   
   149    66   146 1   
   150    66   147 1   
@<TRIPOS>SUBSTRUCTURE
     1 MR8         1 TEMP              0 ****  ****    0 ROOT
