@<TRIPOS>MOLECULE
MR9
   68    72     1     0     0
SMALL
bcc


@<TRIPOS>ATOM
      1 C26         -3.5860    -4.6200    -1.2870 c6         1 MR9       0.141800
      2 C27         -4.7010    -4.6250    -2.3150 c6         1 MR9       0.123400
      3 O3          -5.8870    -5.1690    -1.7920 os         1 MR9      -0.401600
      4 C28         -6.3110    -4.4600    -0.6490 c6         1 MR9       0.123400
      5 C29         -5.2530    -4.4790     0.4380 c6         1 MR9       0.141800
      6 N6          -4.0300    -3.8930    -0.0940 nh         1 MR9      -0.652000
      7 C20         -2.9970    -3.6310     0.8320 ca         1 MR9       0.068600
      8 C21         -2.7170    -4.4380     1.9210 ca         1 MR9      -0.140000
      9 C22         -1.6830    -4.1290     2.7950 ca         1 MR9      -0.099000
     10 C23         -0.9200    -2.9980     2.5660 ca         1 MR9      -0.175300
     11 C25          0.2030    -2.6210     3.4780 c3         1 MR9       0.721200
     12 F2           0.4440    -3.5470     4.4100 f          1 MR9      -0.234300
     13 F3           1.3480    -2.4330     2.8060 f          1 MR9      -0.234300
     14 F1          -0.0460    -1.4720     4.1260 f          1 MR9      -0.234300
     15 C24         -1.1890    -2.1580     1.4880 ca         1 MR9      -0.108000
     16 C19         -2.2300    -2.4640     0.6240 ca         1 MR9       0.078600
     17 N4          -2.6310    -1.6780    -0.4490 ns         1 MR9      -0.472100
     18 C17         -2.0310    -0.5990    -1.0080 c          1 MR9       0.691700
     19 O2          -0.9550    -0.1610    -0.6380 o          1 MR9      -0.583100
     20 C12         -2.7770     0.0200    -2.1440 ca         1 MR9      -0.152600
     21 C11         -4.0950    -0.3050    -2.4540 ca         1 MR9      -0.125000
     22 C13         -2.1260     0.9730    -2.9220 ca         1 MR9      -0.073000
     23 C14         -2.7800     1.5710    -3.9870 ca         1 MR9      -0.135000
     24 C15         -4.0910     1.2450    -4.3230 ca         1 MR9      -0.036300
     25 C16         -4.7940     1.8780    -5.4820 c3         1 MR9      -0.047800
     26 C10         -4.7280     0.2990    -3.5250 ca         1 MR9       0.107100
     27 O1          -6.0400    -0.0140    -3.7780 os         1 MR9      -0.362400
     28 C9          -6.3120    -1.2950    -4.1330 ca         1 MR9       0.656600
     29 N3          -5.5910    -1.8260    -5.0930 nb         1 MR9      -0.716000
     30 C8          -5.9010    -3.0500    -5.5090 ca         1 MR9       0.434200
     31 C7          -6.9610    -3.7740    -4.9940 ca         1 MR9      -0.264300
     32 C6          -7.7040    -3.2050    -3.9710 ca         1 MR9      -0.052000
     33 C5          -7.3740    -1.9420    -3.4990 cp         1 MR9      -0.278800
     34 C2          -8.0850    -1.3510    -2.3460 cp         1 MR9       0.560800
     35 N1          -7.3400    -0.9740    -1.3150 nb         1 MR9      -0.778000
     36 C3          -9.4680    -1.2520    -2.3340 ca         1 MR9      -0.427600
     37 C4         -10.0270    -0.7290    -1.1740 ca         1 MR9       0.485200
     38 N2          -9.3120    -0.3550    -0.1330 nb         1 MR9      -0.772000
     39 C1          -7.9800    -0.5020    -0.2420 ca         1 MR9       0.913900
     40 N5          -7.2440    -0.1540     0.8240 nu         1 MR9      -0.868900
     41 C18         -5.8160    -0.3100     0.8990 c3         1 MR9       0.226100
     42 H261        -3.3000    -5.6500    -1.0330 h1         1 MR9       0.050950
     43 H262        -2.7050    -4.1330    -1.7120 h1         1 MR9       0.050950
     44 H271        -4.8740    -3.5990    -2.6750 h1         1 MR9       0.056450
     45 H272        -4.4090    -5.2290    -3.1750 h1         1 MR9       0.056450
     46 H281        -7.2250    -4.9330    -0.2890 h1         1 MR9       0.056450
     47 H282        -6.5430    -3.4180    -0.9070 h1         1 MR9       0.056450
     48 H291        -5.5960    -3.8890     1.2900 h1         1 MR9       0.050950
     49 H292        -5.1050    -5.5110     0.7850 h1         1 MR9       0.050950
     50 H21         -3.3020    -5.3320     2.0940 ha         1 MR9       0.140000
     51 H22         -1.4890    -4.7870     3.6310 ha         1 MR9       0.151000
     52 H24         -0.6040    -1.2660     1.3300 ha         1 MR9       0.182000
     53 HN4         -3.5030    -2.0130    -0.8410 hn         1 MR9       0.349500
     54 H11         -4.6880    -0.9900    -1.8580 ha         1 MR9       0.157000
     55 H13         -1.1050     1.2480    -2.7000 ha         1 MR9       0.158000
     56 H14         -2.2520     2.3040    -4.5850 ha         1 MR9       0.139000
     57 H161        -5.6570     2.4610    -5.1560 hc         1 MR9       0.052033
     58 H162        -4.1240     2.5440    -6.0230 hc         1 MR9       0.052033
     59 H163        -5.1610     1.1250    -6.1810 hc         1 MR9       0.052033
     60 H8          -5.2790    -3.4640    -6.2930 h4         1 MR9       0.025100
     61 H7          -7.1860    -4.7630    -5.3670 ha         1 MR9       0.152000
     62 H6          -8.5200    -3.7530    -3.5170 ha         1 MR9       0.148000
     63 H3         -10.0760    -1.5520    -3.1740 ha         1 MR9       0.155000
     64 H4         -11.1020    -0.6120    -1.0900 h4         1 MR9       0.022100
     65 HN5         -7.7440     0.1710     1.6340 hn         1 MR9       0.455800
     66 H181        -5.5110    -1.3340     0.6710 h1         1 MR9       0.043367
     67 H182        -5.4990    -0.0800     1.9130 h1         1 MR9       0.043367
     68 H183        -5.2910     0.3600     0.2170 h1         1 MR9       0.043367
@<TRIPOS>BOND
     1     1     2 1   
     2     1     6 1   
     3     1    42 1   
     4     1    43 1   
     5     2     3 1   
     6     2    44 1   
     7     2    45 1   
     8     3     4 1   
     9     4     5 1   
    10     4    46 1   
    11     4    47 1   
    12     5     6 1   
    13     5    48 1   
    14     5    49 1   
    15     6     7 1   
    16     7     8 ar  
    17     7    16 ar  
    18     8     9 ar  
    19     8    50 1   
    20     9    10 ar  
    21     9    51 1   
    22    10    11 1   
    23    10    15 ar  
    24    11    12 1   
    25    11    13 1   
    26    11    14 1   
    27    15    16 ar  
    28    15    52 1   
    29    16    17 1   
    30    17    18 1   
    31    17    53 1   
    32    18    19 2   
    33    18    20 1   
    34    20    21 ar  
    35    20    22 ar  
    36    21    26 ar  
    37    21    54 1   
    38    22    23 ar  
    39    22    55 1   
    40    23    24 ar  
    41    23    56 1   
    42    24    25 1   
    43    24    26 ar  
    44    25    57 1   
    45    25    58 1   
    46    25    59 1   
    47    26    27 1   
    48    27    28 1   
    49    28    29 ar  
    50    28    33 ar  
    51    29    30 ar  
    52    30    31 ar  
    53    30    60 1   
    54    31    32 ar  
    55    31    61 1   
    56    32    33 ar  
    57    32    62 1   
    58    33    34 1   
    59    34    35 ar  
    60    34    36 ar  
    61    35    39 ar  
    62    36    37 ar  
    63    36    63 1   
    64    37    38 ar  
    65    37    64 1   
    66    38    39 ar  
    67    39    40 1   
    68    40    41 1   
    69    40    65 1   
    70    41    66 1   
    71    41    67 1   
    72    41    68 1   
@<TRIPOS>SUBSTRUCTURE
     1 MR9         1 TEMP              0 ****  ****    0 ROOT
