@<TRIPOS>MOLECULE
MR9
   68    72     1     0     0
SMALL
No Charge or Current Charge


@<TRIPOS>ATOM
      1 C26         -3.7060    -4.7580    -1.2940 c6         1 MR9       0.141800
      2 C27         -4.8950    -4.7270    -2.2990 c6         1 MR9       0.146600
      3 O3          -6.1060    -5.2110    -1.6750 os         1 MR9      -0.448000
      4 C28         -6.4870    -4.4190    -0.5260 c6         1 MR9       0.146600
      5 C29         -5.3650    -4.4340     0.5530 c6         1 MR9       0.141800
      6 N6          -4.0280    -4.0530    -0.0120 nh         1 MR9      -0.790400
      7 C20         -2.9660    -3.7290     0.8690 ca         1 MR9       0.207000
      8 C21         -2.6700    -4.5690     1.9570 ca         1 MR9      -0.122000
      9 C22         -1.6150    -4.2670     2.8310 ca         1 MR9      -0.081000
     10 C23         -0.8310    -3.1130     2.6300 ca         1 MR9      -0.175300
     11 C25          0.3140    -2.7590     3.5880 c3         1 MR9       0.357300
     12 F2           0.7740    -3.8330     4.2720 f          1 MR9      -0.113000
     13 F3           1.3770    -2.2340     2.9370 f          1 MR9      -0.113000
     14 F1          -0.0780    -1.8470     4.5050 f          1 MR9      -0.113000
     15 C24         -1.1320    -2.2630     1.5430 ca         1 MR9      -0.090000
     16 C19         -2.1880    -2.5680     0.6540 ca         1 MR9      -0.014000
     17 N4          -2.5440    -1.7320    -0.4410 ns         1 MR9      -0.146000
     18 C17         -1.9160    -0.6550    -1.0460 c          1 MR9       0.624700
     19 O2          -0.8030    -0.2580    -0.7170 o          1 MR9      -0.583100
     20 C12         -2.6930     0.0230    -2.1610 ca         1 MR9      -0.152600
     21 C11         -3.9860    -0.4060    -2.5570 ca         1 MR9      -0.107000
     22 C13         -2.1250     1.1370    -2.8210 ca         1 MR9      -0.055000
     23 C14         -2.8280     1.8120    -3.8330 ca         1 MR9      -0.117000
     24 C15         -4.1150     1.3920    -4.2110 ca         1 MR9      -0.036300
     25 C16         -4.8770     2.1390    -5.3000 c3         1 MR9      -0.047800
     26 C10         -4.6860     0.2740    -3.5730 ca         1 MR9       0.107100
     27 O1          -5.9590    -0.1230    -3.9070 os         1 MR9      -0.362400
     28 C9          -6.2470    -1.4170    -4.2580 ca         1 MR9       0.591300
     29 N3          -5.5530    -1.9670    -5.2780 nb         1 MR9      -0.716000
     30 C8          -5.8990    -3.2070    -5.6820 ca         1 MR9       0.368900
     31 C7          -6.9480    -3.9320    -5.1010 ca         1 MR9      -0.181000
     32 C6          -7.6710    -3.3610    -4.0440 ca         1 MR9      -0.034000
     33 C5          -7.3190    -2.0690    -3.5900 cp         1 MR9      -0.213500
     34 C2          -8.0420    -1.4580    -2.4370 cp         1 MR9       0.232500
     35 N1          -7.3110    -0.8550    -1.4800 nb         1 MR9      -0.252000
     36 C3          -9.4400    -1.5820    -2.2750 ca         1 MR9      -0.279000
     37 C4         -10.0260    -1.0440    -1.1170 ca         1 MR9       0.156900
     38 N2          -9.2800    -0.4430    -0.1700 nb         1 MR9      -0.246000
     39 C1          -7.9590    -0.3840    -0.4010 ca         1 MR9       0.387900
     40 N5          -7.2000     0.2140     0.5940 nu         1 MR9      -0.924100
     41 C18         -5.7300     0.3380     0.6400 c3         1 MR9       0.226100
     42 H261        -3.4470    -5.8070    -1.0870 h1         1 MR9       0.050950
     43 H262        -2.8310    -4.2960    -1.7740 h1         1 MR9       0.050950
     44 H271        -5.0550    -3.6980    -2.6510 h1         1 MR9       0.056450
     45 H272        -4.6630    -5.3530    -3.1720 h1         1 MR9       0.056450
     46 H281        -7.4190    -4.8190    -0.1030 h1         1 MR9       0.056450
     47 H282        -6.6760    -3.3860    -0.8470 h1         1 MR9       0.056450
     48 H291        -5.6450    -3.7400     1.3580 h1         1 MR9       0.050950
     49 H292        -5.3170    -5.4420     0.9890 h1         1 MR9       0.050950
     50 H21         -3.2560    -5.4680     2.1230 ha         1 MR9       0.122000
     51 H22         -1.4150    -4.9360     3.6670 ha         1 MR9       0.133000
     52 H24         -0.5440    -1.3600     1.4130 ha         1 MR9       0.164000
     53 HN4         -3.4340    -1.9850    -0.8480 hn         1 MR9       0.183000
     54 H11         -4.4720    -1.2500    -2.0750 ha         1 MR9       0.139000
     55 H13         -1.1350     1.4940    -2.5440 ha         1 MR9       0.140000
     56 H14         -2.3690     2.6710    -4.3180 ha         1 MR9       0.121000
     57 H161        -5.8090     2.5600    -4.9060 hc         1 MR9       0.052033
     58 H162        -4.2890     2.9670    -5.7150 hc         1 MR9       0.052033
     59 H163        -5.1340     1.4680    -6.1270 hc         1 MR9       0.052033
     60 H8          -5.3200    -3.6290    -6.5020 h4         1 MR9       0.025100
     61 H7          -7.1870    -4.9270    -5.4640 ha         1 MR9       0.134000
     62 H6          -8.4750    -3.9210    -3.5690 ha         1 MR9       0.130000
     63 H3         -10.0510    -2.0760    -3.0240 ha         1 MR9       0.137000
     64 H4         -11.0980    -1.1040    -0.9400 h4         1 MR9       0.022100
     65 HN5         -7.7290     0.5530     1.4000 hn         1 MR9       0.511000
     66 H181        -5.2590    -0.6550     0.6270 h1         1 MR9       0.043367
     67 H182        -5.4150     0.8570     1.5560 h1         1 MR9       0.043367
     68 H183        -5.3640     0.9090    -0.2240 h1         1 MR9       0.043367
@<TRIPOS>BOND
     1     1     2 1   
     2     1     6 1   
     3     1    42 1   
     4     1    43 1   
     5     2     3 1   
     6     2    44 1   
     7     2    45 1   
     8     3     4 1   
     9     4     5 1   
    10     4    46 1   
    11     4    47 1   
    12     5     6 1   
    13     5    48 1   
    14     5    49 1   
    15     6     7 1   
    16     7     8 ar  
    17     7    16 ar  
    18     8     9 ar  
    19     8    50 1   
    20     9    10 ar  
    21     9    51 1   
    22    10    11 1   
    23    10    15 ar  
    24    11    12 1   
    25    11    13 1   
    26    11    14 1   
    27    15    16 ar  
    28    15    52 1   
    29    16    17 1   
    30    17    18 1   
    31    17    53 1   
    32    18    19 2   
    33    18    20 1   
    34    20    21 ar  
    35    20    22 ar  
    36    21    26 ar  
    37    21    54 1   
    38    22    23 ar  
    39    22    55 1   
    40    23    24 ar  
    41    23    56 1   
    42    24    25 1   
    43    24    26 ar  
    44    25    57 1   
    45    25    58 1   
    46    25    59 1   
    47    26    27 1   
    48    27    28 1   
    49    28    29 ar  
    50    28    33 ar  
    51    29    30 ar  
    52    30    31 ar  
    53    30    60 1   
    54    31    32 ar  
    55    31    61 1   
    56    32    33 ar  
    57    32    62 1   
    58    33    34 1   
    59    34    35 ar  
    60    34    36 ar  
    61    35    39 ar  
    62    36    37 ar  
    63    36    63 1   
    64    37    38 ar  
    65    37    64 1   
    66    38    39 ar  
    67    39    40 1   
    68    40    41 1   
    69    40    65 1   
    70    41    66 1   
    71    41    67 1   
    72    41    68 1   
@<TRIPOS>SUBSTRUCTURE
     1 MR9         1 TEMP              0 ****  ****    0 ROOT
