@<TRIPOS>MOLECULE
MRA
   38    39     1     0     0
SMALL
No Charge or Current Charge


@<TRIPOS>ATOM
      1 C1           2.9300    -2.8160    -0.2710 ca         1 MRA      -0.097000
      2 C2           1.9180    -1.9760    -0.7650 ca         1 MRA       0.123000
      3 C3           1.5570    -0.7930    -0.0750 ca         1 MRA       0.288000
      4 C4           2.2060    -0.4930     1.1380 ca         1 MRA      -0.137000
      5 C5           3.2200    -1.3330     1.6350 ca         1 MRA      -0.067000
      6 C6           3.5880    -2.4930     0.9290 ca         1 MRA       0.019000
      7 C7           4.6200    -3.3490     1.4360 cg         1 MRA      -0.125000
      8 C8           5.4950    -4.0790     1.8590 c1         1 MRA      -0.224000
      9 N1           0.5260     0.0300    -0.5630 nu         1 MRA      -0.962000
     10 C9           0.1290     1.3580    -0.3260 ca         1 MRA       0.323000
     11 C10         -1.2560     1.6810    -0.3350 ca         1 MRA      -0.195600
     12 C11         -1.6510     3.0160    -0.0590 ca         1 MRA      -0.058000
     13 C12         -0.6970     4.0110     0.2000 ca         1 MRA      -0.157000
     14 C13          0.6650     3.6970     0.1720 ca         1 MRA       0.172000
     15 C14          1.0850     2.3850    -0.0940 ca         1 MRA       0.101000
     16 F1           2.4170     2.1320    -0.1660 f          1 MRA      -0.143000
     17 F2           1.5750     4.6740     0.3930 f          1 MRA      -0.152000
     18 C15         -2.3120     0.6350    -0.6420 c          1 MRA       0.613700
     19 O1          -2.0800    -0.3700    -1.3040 o          1 MRA      -0.545100
     20 N2          -3.5890     0.9060    -0.1700 ns         1 MRA      -0.387400
     21 O2          -4.6460    -0.0350    -0.4400 os         1 MRA      -0.210100
     22 C16         -4.7370    -1.0420     0.5880 c3         1 MRA       0.128600
     23 C17         -5.9340    -1.9720     0.2750 c3         1 MRA       0.164600
     24 O3          -5.7100    -2.7330    -0.9250 oh         1 MRA      -0.640000
     25 F3           1.2900    -2.3150    -1.9190 f          1 MRA      -0.181000
     26 H1           3.1980    -3.7150    -0.8200 ha         1 MRA       0.138000
     27 H4           1.9190     0.3840     1.7100 ha         1 MRA       0.123000
     28 H5           3.7140    -1.0840     2.5710 ha         1 MRA       0.124000
     29 H8           6.2690    -4.7230     2.2260 ha         1 MRA       0.257000
     30 HN1         -0.1700    -0.4870    -1.1140 hn         1 MRA       0.510000
     31 H11         -2.6990     3.3090    -0.0680 ha         1 MRA       0.126000
     32 H12         -1.0120     5.0320     0.4010 ha         1 MRA       0.142000
     33 HN2         -3.8220     1.7180     0.3920 hn         1 MRA       0.338500
     34 H161        -3.8150    -1.6350     0.6410 h1         1 MRA       0.045700
     35 H162        -4.8990    -0.5740     1.5670 h1         1 MRA       0.045700
     36 H171        -6.0790    -2.6510     1.1260 h1         1 MRA       0.026200
     37 H172        -6.8440    -1.3650     0.1800 h1         1 MRA       0.026200
     38 HO3         -6.5160    -3.2740    -1.0760 ho         1 MRA       0.444000
@<TRIPOS>BOND
     1     1     2 ar  
     2     1     6 ar  
     3     1    26 1   
     4     2     3 ar  
     5     2    25 1   
     6     3     4 ar  
     7     3     9 1   
     8     4     5 ar  
     9     4    27 1   
    10     5     6 ar  
    11     5    28 1   
    12     6     7 1   
    13     7     8 3   
    14     8    29 1   
    15     9    10 1   
    16     9    30 1   
    17    10    11 ar  
    18    10    15 ar  
    19    11    12 ar  
    20    11    18 1   
    21    12    13 ar  
    22    12    31 1   
    23    13    14 ar  
    24    13    32 1   
    25    14    15 ar  
    26    14    17 1   
    27    15    16 1   
    28    18    19 2   
    29    18    20 1   
    30    20    21 1   
    31    20    33 1   
    32    21    22 1   
    33    22    23 1   
    34    22    34 1   
    35    22    35 1   
    36    23    24 1   
    37    23    36 1   
    38    23    37 1   
    39    24    38 1   
@<TRIPOS>SUBSTRUCTURE
     1 MRA         1 TEMP              0 ****  ****    0 ROOT
