@<TRIPOS>MOLECULE
MRA
   38    39     1     0     0
SMALL
bcc


@<TRIPOS>ATOM
      1 C1           3.2560    -2.5620    -0.6300 ca         1 MRA      -0.115000
      2 C2           2.2300    -1.7680    -1.0770 ca         1 MRA       0.087900
      3 C3           1.6660    -0.7460    -0.3110 ca         1 MRA       0.149600
      4 C4           2.1890    -0.5550     0.9680 ca         1 MRA      -0.155000
      5 C5           3.2330    -1.3330     1.4360 ca         1 MRA      -0.085000
      6 C6           3.7820    -2.3440     0.6470 ca         1 MRA       0.019000
      7 C7           4.8540    -3.1490     1.1290 cg         1 MRA      -0.125000
      8 C8           5.7600    -3.8320     1.5340 c1         1 MRA      -0.136500
      9 N1           0.6430     0.0120    -0.8470 nu         1 MRA      -0.630000
     10 C9           0.1410     1.1550    -0.2350 ca         1 MRA       0.184600
     11 C10         -1.2090     1.3060     0.1120 ca         1 MRA      -0.195600
     12 C11         -1.6580     2.5100     0.6450 ca         1 MRA      -0.076000
     13 C12         -0.7920     3.5680     0.8690 ca         1 MRA      -0.175000
     14 C13          0.5340     3.4140     0.5280 ca         1 MRA       0.136900
     15 C14          0.9900     2.2380    -0.0350 ca         1 MRA       0.065900
     16 F1           2.2680     2.1470    -0.4040 f          1 MRA      -0.107900
     17 F2           1.4020     4.4100     0.7090 f          1 MRA      -0.116900
     18 C15         -2.1440     0.1440    -0.0020 c          1 MRA       0.680700
     19 O1          -1.8530    -0.9770     0.3720 o          1 MRA      -0.545100
     20 N2          -3.3420     0.4800    -0.5170 ns         1 MRA      -0.454400
     21 O2          -4.2780    -0.4810    -0.7130 os         1 MRA      -0.186900
     22 C16         -5.2560    -0.4680     0.3300 c3         1 MRA       0.105400
     23 C17         -6.2640    -1.5490     0.0470 c3         1 MRA       0.141400
     24 O3          -5.6520    -2.8100     0.1680 oh         1 MRA      -0.577800
     25 F3           1.7280    -1.9760    -2.3070 f          1 MRA      -0.145900
     26 H1           3.6550    -3.3360    -1.2720 ha         1 MRA       0.156000
     27 H4           1.7640     0.1950     1.6210 ha         1 MRA       0.141000
     28 H5           3.6160    -1.1600     2.4320 ha         1 MRA       0.142000
     29 H8           6.5590    -4.4370     1.8950 ha         1 MRA       0.169500
     30 HN1          0.0070    -0.4740    -1.4600 hn         1 MRA       0.454800
     31 H11         -2.6950     2.6200     0.9280 ha         1 MRA       0.144000
     32 H12         -1.1390     4.4940     1.3060 ha         1 MRA       0.160000
     33 HN2         -3.4990     1.3470    -1.0150 hn         1 MRA       0.338500
     34 H161        -4.7790    -0.6260     1.3020 h1         1 MRA       0.045700
     35 H162        -5.7710     0.4970     0.3540 h1         1 MRA       0.045700
     36 H171        -7.0800    -1.4150     0.7680 h1         1 MRA       0.026200
     37 H172        -6.6960    -1.3940    -0.9500 h1         1 MRA       0.026200
     38 HO3         -6.3140    -3.4820    -0.0160 ho         1 MRA       0.405000
@<TRIPOS>BOND
     1     1     2 ar  
     2     1     6 ar  
     3     1    26 1   
     4     2     3 ar  
     5     2    25 1   
     6     3     4 ar  
     7     3     9 1   
     8     4     5 ar  
     9     4    27 1   
    10     5     6 ar  
    11     5    28 1   
    12     6     7 1   
    13     7     8 3   
    14     8    29 1   
    15     9    10 1   
    16     9    30 1   
    17    10    11 ar  
    18    10    15 ar  
    19    11    12 ar  
    20    11    18 1   
    21    12    13 ar  
    22    12    31 1   
    23    13    14 ar  
    24    13    32 1   
    25    14    15 ar  
    26    14    17 1   
    27    15    16 1   
    28    18    19 2   
    29    18    20 1   
    30    20    21 1   
    31    20    33 1   
    32    21    22 1   
    33    22    23 1   
    34    22    34 1   
    35    22    35 1   
    36    23    24 1   
    37    23    36 1   
    38    23    37 1   
    39    24    38 1   
@<TRIPOS>SUBSTRUCTURE
     1 MRA         1 TEMP              0 ****  ****    0 ROOT
