@<TRIPOS>MOLECULE
MRB
  121   124     1     0     0
SMALL
No Charge or Current Charge


@<TRIPOS>ATOM
      1 C15        -13.4200    -7.9470   -25.5030 c3         1 MRB      -0.024400
      2 C17        -11.4980    -6.8490   -24.2160 ca         1 MRB      -0.103500
      3 C20        -13.0410    -4.5520   -23.7360 ca         1 MRB      -0.115000
      4 C21        -13.5890    -5.6330   -24.4470 ca         1 MRB      -0.103500
      5 C22        -13.5910    -9.1900   -24.5980 c3         1 MRB      -0.084100
      6 C26        -14.4790    -8.9980   -31.2750 c3         1 MRB      -0.140400
      7 C02        -15.4360    -5.3760   -29.7120 c          1 MRB       0.581100
      8 C04        -13.3440    -4.2390   -30.5030 c3         1 MRB       0.023400
      9 C05        -12.8890    -3.3330   -31.7090 c3         1 MRB      -0.047000
     10 C06        -13.5530    -1.9240   -31.6870 c3         1 MRB      -0.092433
     11 C07        -13.2780    -4.0350   -33.0400 c3         1 MRB      -0.092433
     12 C08        -11.3510    -3.1450   -31.6990 c3         1 MRB      -0.092433
     13 C09        -12.8450    -3.8180   -29.0650 c2         1 MRB       0.654200
     14 C11        -10.8850    -5.3260   -28.7810 c3         1 MRB       0.095500
     15 C12        -11.2830    -6.8060   -28.4200 c          1 MRB       0.600100
     16 C14        -12.5930    -8.2270   -26.7920 c3         1 MRB       0.045700
     17 C16        -12.8220    -6.7870   -24.6990 ca         1 MRB      -0.080300
     18 C18        -10.9500    -5.7690   -23.5030 ca         1 MRB      -0.115000
     19 C19        -11.7190    -4.6180   -23.2650 ca         1 MRB      -0.112000
     20 C23        -13.2600    -9.2880   -27.7260 c          1 MRB       0.610100
     21 C25        -14.5580    -9.6450   -29.8700 c3         1 MRB       0.089400
     22 C27        -13.0460    -8.6600   -31.6760 c          1 MRB       0.605100
     23 C29        -11.0180    -9.5820   -32.5820 c3         1 MRB       0.152900
     24 C31        -15.9870   -10.0060   -29.5030 cc         1 MRB       0.396700
     25 C33        -17.8830   -11.1660   -29.4400 cd         1 MRB       0.264900
     26 C34        -18.2840   -10.0460   -28.7530 cc         1 MRB      -0.278000
     27 C38         -9.4480    -4.9360   -28.2420 c3         1 MRB      -0.029000
     28 C39         -9.0620    -3.4940   -28.6860 c3         1 MRB      -0.085767
     29 C40         -9.4030    -5.0100   -26.6880 c3         1 MRB      -0.085767
     30 C41         -8.3550    -5.8870   -28.8110 c3         1 MRB      -0.085767
     31 C42        -16.9610    -5.2220   -29.5080 c3         1 MRB       0.026700
     32 C43        -17.7510    -5.6280   -30.7750 c3         1 MRB      -0.081400
     33 C44        -19.2730    -5.7420   -30.5530 c3         1 MRB       0.058600
     34 C46        -19.7240    -8.2870   -31.7430 c3         1 MRB       0.039900
     35 C48        -18.1740    -3.5190   -28.0740 c          1 MRB       0.607100
     36 C49        -17.7410    -2.1850   -27.3720 c5         1 MRB       0.024700
     37 C50        -18.4040    -0.9220   -28.0250 c5         1 MRB      -0.064700
     38 C51        -19.7780    -1.1230   -28.7080 c3         1 MRB      -0.087100
     39 C52        -17.2890    -0.4130   -28.9810 c5         1 MRB      -0.099400
     40 C53        -16.0210    -0.5580   -28.1050 c5         1 MRB       0.104000
     41 C55        -15.3070    -2.6090   -26.7560 c          1 MRB       0.562100
     42 C56        -13.8010    -2.4180   -27.1240 c3         1 MRB       0.149800
     43 N03        -14.8180    -4.4190   -30.4820 ns         1 MRB      -0.506900
     44 N10        -11.8780    -4.2920   -28.3340 n2         1 MRB      -0.696900
     45 N13        -12.2840    -6.9530   -27.4890 ns         1 MRB      -0.488900
     46 N24        -13.8850    -8.8120   -28.8560 ns         1 MRB      -0.510900
     47 N32        -16.5670   -11.1420   -29.8770 nd         1 MRB      -0.660000
     48 N47        -17.2420    -3.8480   -29.0390 ns         1 MRB      -0.504900
     49 N54        -16.2780    -1.8690   -27.4770 n          1 MRB      -0.434800
     50 N57        -13.5380    -2.7320   -28.5650 nu         1 MRB      -0.908400
     51 O28        -12.3930    -9.7480   -32.1930 os         1 MRB      -0.426100
     52 O30        -12.5460    -7.5530   -31.5380 o          1 MRB      -0.510000
     53 O36        -13.1870   -10.4910   -27.5120 o          1 MRB      -0.603100
     54 O37        -10.7570    -7.7900   -28.9260 o          1 MRB      -0.617100
     55 O58        -15.6660    -3.4550   -25.9470 o          1 MRB      -0.580100
     56 O59        -19.0890    -4.2610   -27.7460 o          1 MRB      -0.567100
     57 S35        -16.9950    -8.8880   -28.6140 ss         1 MRB       0.037600
     58 S45        -20.0970    -6.4950   -32.0300 ss         1 MRB      -0.437000
     59 H151       -14.4270    -7.6590   -25.8330 hc         1 MRB       0.074700
     60 H171       -10.8880    -7.7310   -24.3960 ha         1 MRB       0.120000
     61 H201       -13.6410    -3.6650   -23.5500 ha         1 MRB       0.108500
     62 H211       -14.6140    -5.5710   -24.8040 ha         1 MRB       0.120000
     63 H222       -14.1170    -8.9200   -23.6750 hc         1 MRB       0.044033
     64 H221       -14.1810    -9.9680   -25.0970 hc         1 MRB       0.044033
     65 H223       -12.6180    -9.6160   -24.3240 hc         1 MRB       0.044033
     66 H261       -15.0900    -8.0880   -31.3000 hc         1 MRB       0.080700
     67 H262       -14.8670    -9.7460   -31.9770 hc         1 MRB       0.080700
     68 H041       -12.9160    -5.2300   -30.6840 h1         1 MRB       0.103700
     69 H063       -13.2140    -1.3300   -30.8310 hc         1 MRB       0.041700
     70 H062       -13.2850    -1.3600   -32.5900 hc         1 MRB       0.041700
     71 H061       -14.6470    -1.9870   -31.6560 hc         1 MRB       0.041700
     72 H072       -12.8350    -5.0370   -33.0990 hc         1 MRB       0.041700
     73 H073       -14.3660    -4.1420   -33.1360 hc         1 MRB       0.041700
     74 H071       -12.9250    -3.4620   -33.9060 hc         1 MRB       0.041700
     75 H083       -11.0260    -2.6210   -30.7930 hc         1 MRB       0.041700
     76 H082       -10.8320    -4.1090   -31.7510 hc         1 MRB       0.041700
     77 H081       -11.0240    -2.5470   -32.5590 hc         1 MRB       0.041700
     78 H111       -10.8280    -5.3260   -29.8750 h1         1 MRB       0.058700
     79 H141       -11.6340    -8.6660   -26.4890 h1         1 MRB       0.081700
     80 H181        -9.9260    -5.8230   -23.1380 ha         1 MRB       0.108500
     81 H191       -11.2940    -3.7820   -22.7160 ha         1 MRB       0.109000
     82 H251       -14.0070   -10.5950   -29.9280 h1         1 MRB       0.114700
     83 H291       -10.6160   -10.5240   -32.9740 h1         1 MRB       0.049700
     84 H293       -10.9220    -8.8190   -33.3650 h1         1 MRB       0.049700
     85 H292       -10.4030    -9.2790   -31.7240 h1         1 MRB       0.049700
     86 H331       -18.5030   -12.0280   -29.6570 h4         1 MRB       0.035100
     87 H341       -19.2520    -9.8320   -28.3190 h4         1 MRB       0.159000
     88 H391        -8.0620    -3.2260   -28.3230 hc         1 MRB       0.037256
     89 H393        -9.0480    -3.4140   -29.7790 hc         1 MRB       0.037256
     90 H392        -9.7580    -2.7430   -28.2940 hc         1 MRB       0.037256
     91 H402        -8.4110    -4.7320   -26.3120 hc         1 MRB       0.037256
     92 H401       -10.1330    -4.3300   -26.2330 hc         1 MRB       0.037256
     93 H403        -9.6190    -6.0240   -26.3330 hc         1 MRB       0.037256
     94 H411        -7.3500    -5.5200   -28.5680 hc         1 MRB       0.037256
     95 H412        -8.4330    -6.8960   -28.3890 hc         1 MRB       0.037256
     96 H413        -8.4300    -5.9620   -29.9020 hc         1 MRB       0.037256
     97 H421       -17.2180    -5.9190   -28.7000 h1         1 MRB       0.117700
     98 H432       -17.3710    -6.5980   -31.1150 hc         1 MRB       0.054700
     99 H431       -17.5540    -4.9120   -31.5830 hc         1 MRB       0.054700
    100 H441       -19.6930    -4.7420   -30.3810 h1         1 MRB       0.078700
    101 H442       -19.4830    -6.3590   -29.6700 h1         1 MRB       0.078700
    102 H462       -20.1890    -8.8920   -32.5310 h1         1 MRB       0.062700
    103 H463       -18.6400    -8.4580   -31.7570 h1         1 MRB       0.062700
    104 H461       -20.1240    -8.6010   -30.7700 h1         1 MRB       0.062700
    105 H491       -18.0490    -2.2800   -26.3230 h1         1 MRB       0.104700
    106 H501       -18.5690    -0.1710   -27.2420 hc         1 MRB       0.063700
    107 H511       -20.5120    -1.5360   -28.0050 hc         1 MRB       0.047033
    108 H513       -20.1730    -0.1680   -29.0760 hc         1 MRB       0.047033
    109 H512       -19.7110    -1.8020   -29.5670 hc         1 MRB       0.047033
    110 H522       -17.4510     0.6220   -29.3040 hc         1 MRB       0.058700
    111 H521       -17.2200    -1.0280   -29.8860 hc         1 MRB       0.058700
    112 H532       -15.1060    -0.5310   -28.7090 h1         1 MRB       0.048700
    113 H531       -15.9610     0.2320   -27.3440 h1         1 MRB       0.048700
    114 H561       -13.2080    -3.0550   -26.4550 h1         1 MRB       0.085200
    115 H562       -13.5420    -1.3740   -26.9070 h1         1 MRB       0.085200
    116 H031       -15.4110    -3.7790   -30.9960 hn         1 MRB       0.316500
    117 H131       -12.6670    -6.0840   -27.1300 hn         1 MRB       0.353500
    118 H241       -13.9290    -7.7960   -28.9470 hn         1 MRB       0.360500
    119 H471       -16.5230    -3.1470   -29.1670 hn         1 MRB       0.302500
    120 H571       -14.1480    -2.2970   -29.2460 hn         1 MRB       0.472000
    121 O01        -14.7810    -6.2170   -29.1270 o          1 MRB      -0.593100
@<TRIPOS>BOND
     1     1     5 1   
     2     1    16 1   
     3     1    17 1   
     4     1    59 1   
     5     2    17 ar  
     6     2    18 ar  
     7     2    60 1   
     8     3     4 ar  
     9     3    19 ar  
    10     3    61 1   
    11     4    17 ar  
    12     4    62 1   
    13     5    63 1   
    14     5    64 1   
    15     5    65 1   
    16     6    21 1   
    17     6    22 1   
    18     6    66 1   
    19     6    67 1   
    20     7    31 1   
    21     7    43 1   
    22     7   121 2   
    23     8     9 1   
    24     8    13 1   
    25     8    43 1   
    26     8    68 1   
    27     9    10 1   
    28     9    11 1   
    29     9    12 1   
    30    10    69 1   
    31    10    70 1   
    32    10    71 1   
    33    11    72 1   
    34    11    73 1   
    35    11    74 1   
    36    12    75 1   
    37    12    76 1   
    38    12    77 1   
    39    13    44 2   
    40    13    50 1   
    41    14    15 1   
    42    14    27 1   
    43    14    44 1   
    44    14    78 1   
    45    15    45 1   
    46    15    54 2   
    47    16    20 1   
    48    16    45 1   
    49    16    79 1   
    50    18    19 ar  
    51    18    80 1   
    52    19    81 1   
    53    20    46 1   
    54    20    53 2   
    55    21    24 1   
    56    21    46 1   
    57    21    82 1   
    58    22    51 1   
    59    22    52 2   
    60    23    51 1   
    61    23    83 1   
    62    23    84 1   
    63    23    85 1   
    64    24    47 2   
    65    24    57 1   
    66    25    26 2   
    67    25    47 1   
    68    25    86 1   
    69    26    57 1   
    70    26    87 1   
    71    27    28 1   
    72    27    29 1   
    73    27    30 1   
    74    28    88 1   
    75    28    89 1   
    76    28    90 1   
    77    29    91 1   
    78    29    92 1   
    79    29    93 1   
    80    30    94 1   
    81    30    95 1   
    82    30    96 1   
    83    31    32 1   
    84    31    48 1   
    85    31    97 1   
    86    32    33 1   
    87    32    98 1   
    88    32    99 1   
    89    33    58 1   
    90    33   100 1   
    91    33   101 1   
    92    34    58 1   
    93    34   102 1   
    94    34   103 1   
    95    34   104 1   
    96    35    36 1   
    97    35    48 1   
    98    35    56 2   
    99    36    37 1   
   100    36    49 1   
   101    36   105 1   
   102    37    38 1   
   103    37    39 1   
   104    37   106 1   
   105    38   107 1   
   106    38   108 1   
   107    38   109 1   
   108    39    40 1   
   109    39   110 1   
   110    39   111 1   
   111    40    49 1   
   112    40   112 1   
   113    40   113 1   
   114    41    42 1   
   115    41    49 1   
   116    41    55 2   
   117    42    50 1   
   118    42   114 1   
   119    42   115 1   
   120    43   116 1   
   121    45   117 1   
   122    46   118 1   
   123    48   119 1   
   124    50   120 1   
@<TRIPOS>SUBSTRUCTURE
     1 MRB         1 TEMP              0 ****  ****    0 ROOT
