@<TRIPOS>MOLECULE
MRB
  121   124     1     0     0
SMALL
abcg2


@<TRIPOS>ATOM
      1 C15        -13.3560    -7.4040   -25.3860 c3         1 MRB      -0.024400
      2 C17        -11.2960    -6.9480   -23.9920 ca         1 MRB      -0.103500
      3 C20        -12.1680    -4.3950   -23.3690 ca         1 MRB      -0.115000
      4 C21        -12.9380    -5.2180   -24.1830 ca         1 MRB      -0.103500
      5 C22        -13.8260    -8.6200   -24.5880 c3         1 MRB      -0.084100
      6 C26        -14.8090    -9.2780   -30.6020 c3         1 MRB      -0.140400
      7 C02        -15.2510    -5.3300   -30.3100 c          1 MRB       0.581100
      8 C04        -13.1930    -4.1910   -30.9470 c3         1 MRB       0.023400
      9 C05        -12.6960    -3.3110   -32.1250 c3         1 MRB      -0.047000
     10 C06        -13.3620    -1.9330   -32.1980 c3         1 MRB      -0.092433
     11 C07        -12.9710    -4.0750   -33.4250 c3         1 MRB      -0.092433
     12 C08        -11.1910    -3.1060   -31.9890 c3         1 MRB      -0.092433
     13 C09        -12.8630    -3.7040   -29.5220 c2         1 MRB       0.654200
     14 C11        -11.0720    -5.2280   -29.0370 c3         1 MRB       0.095500
     15 C12        -11.5120    -6.5830   -28.4870 c          1 MRB       0.600100
     16 C14        -12.5650    -7.7730   -26.6610 c3         1 MRB       0.045700
     17 C16        -12.5110    -6.5010   -24.5110 ca         1 MRB      -0.080300
     18 C18        -10.5250    -6.1300   -23.1800 ca         1 MRB      -0.115000
     19 C19        -10.9570    -4.8470   -22.8670 ca         1 MRB      -0.112000
     20 C23        -13.2210    -8.9220   -27.4260 c          1 MRB       0.610100
     21 C25        -14.8910    -9.5570   -29.0980 c3         1 MRB       0.089400
     22 C27        -13.4060    -9.1660   -31.1420 c          1 MRB       0.605100
     23 C29        -11.2860   -10.1880   -31.2130 c3         1 MRB       0.152900
     24 C31        -16.3330    -9.6080   -28.6680 cc         1 MRB       0.396700
     25 C33        -18.4770   -10.0710   -28.6750 cd         1 MRB       0.264900
     26 C34        -18.4290    -9.4320   -27.4780 cc         1 MRB      -0.278000
     27 C38         -9.6670    -4.8600   -28.4350 c3         1 MRB      -0.029000
     28 C39         -9.2440    -3.4990   -28.9900 c3         1 MRB      -0.085767
     29 C40         -9.7150    -4.7770   -26.9080 c3         1 MRB      -0.085767
     30 C41         -8.5990    -5.8750   -28.8520 c3         1 MRB      -0.085767
     31 C42        -16.7790    -5.2800   -30.2590 c3         1 MRB       0.026700
     32 C43        -17.4660    -5.0340   -31.5990 c3         1 MRB      -0.081400
     33 C44        -18.9720    -5.2130   -31.4850 c3         1 MRB       0.058600
     34 C46        -19.3520    -6.2930   -34.0300 c3         1 MRB       0.039900
     35 C48        -17.4970    -4.5220   -28.0110 c          1 MRB       0.607100
     36 C49        -17.4110    -3.3390   -27.0420 c5         1 MRB       0.024700
     37 C50        -18.5820    -2.3390   -27.1360 c5         1 MRB      -0.064700
     38 C51        -19.9170    -2.9280   -27.5510 c3         1 MRB      -0.087100
     39 C52        -18.0500    -1.2510   -28.0670 c5         1 MRB      -0.099400
     40 C53        -16.5740    -1.1540   -27.7110 c5         1 MRB       0.104000
     41 C55        -15.0160    -3.0760   -27.2000 c          1 MRB       0.562100
     42 C56        -13.8250    -2.2890   -27.7280 c3         1 MRB       0.149800
     43 N03        -14.6280    -4.4020   -31.0480 ns         1 MRB      -0.506900
     44 N10        -12.0030    -4.1870   -28.7180 n2         1 MRB      -0.696900
     45 N13        -12.3630    -6.5790   -27.4470 ns         1 MRB      -0.488900
     46 N24        -14.1740    -8.5830   -28.3140 ns         1 MRB      -0.510900
     47 N32        -17.2880   -10.1630   -29.3390 nd         1 MRB      -0.660000
     48 N47        -17.1060    -4.2630   -29.2790 ns         1 MRB      -0.504900
     49 N54        -16.2390    -2.5210   -27.3060 n          1 MRB      -0.434800
     50 N57        -13.6350    -2.6510   -29.1150 nu         1 MRB      -0.908400
     51 O28        -12.6270   -10.1500   -30.7220 os         1 MRB      -0.426100
     52 O30        -13.0440    -8.3110   -31.9100 o          1 MRB      -0.510000
     53 O36        -12.9130   -10.0750   -27.1710 o          1 MRB      -0.603100
     54 O37        -11.0590    -7.6300   -28.9310 o          1 MRB      -0.617100
     55 O58        -14.8830    -4.2270   -26.8010 o          1 MRB      -0.580100
     56 O59        -17.9190    -5.6030   -27.6430 o          1 MRB      -0.567100
     57 S35        -16.8260    -8.9180   -27.1650 ss         1 MRB       0.037600
     58 S45        -19.8650    -4.8820   -33.0240 ss         1 MRB      -0.437000
     59 H151       -14.2440    -6.8460   -25.7010 hc         1 MRB       0.074700
     60 H171       -10.9390    -7.9460   -24.2200 ha         1 MRB       0.120000
     61 H201       -12.5180    -3.3990   -23.1310 ha         1 MRB       0.108500
     62 H211       -13.8790    -4.8540   -24.5750 ha         1 MRB       0.120000
     63 H222       -14.2900    -8.2870   -23.6600 hc         1 MRB       0.044033
     64 H221       -14.5700    -9.2040   -25.1290 hc         1 MRB       0.044033
     65 H223       -12.9990    -9.2820   -24.3310 hc         1 MRB       0.044033
     66 H261       -15.3450    -8.3640   -30.8520 hc         1 MRB       0.080700
     67 H262       -15.3080   -10.0940   -31.1320 hc         1 MRB       0.080700
     68 H041       -12.7140    -5.1640   -31.0720 h1         1 MRB       0.103700
     69 H063       -13.1110    -1.3080   -31.3410 hc         1 MRB       0.041700
     70 H062       -13.0080    -1.4150   -33.0900 hc         1 MRB       0.041700
     71 H061       -14.4510    -1.9770   -32.2800 hc         1 MRB       0.041700
     72 H072       -12.5190    -5.0690   -33.4000 hc         1 MRB       0.041700
     73 H073       -14.0370    -4.1980   -33.6230 hc         1 MRB       0.041700
     74 H071       -12.5440    -3.5350   -34.2710 hc         1 MRB       0.041700
     75 H083       -10.9380    -2.5480   -31.0880 hc         1 MRB       0.041700
     76 H082       -10.6500    -4.0540   -31.9640 hc         1 MRB       0.041700
     77 H081       -10.8160    -2.5390   -32.8420 hc         1 MRB       0.041700
     78 H111       -10.9130    -5.3760   -30.1130 h1         1 MRB       0.058700
     79 H141       -11.5930    -8.1750   -26.3580 h1         1 MRB       0.081700
     80 H181        -9.5830    -6.4960   -22.7900 ha         1 MRB       0.108500
     81 H191       -10.3550    -4.2070   -22.2350 ha         1 MRB       0.109000
     82 H251       -14.4510   -10.5340   -28.8880 h1         1 MRB       0.114700
     83 H291       -10.8210   -11.0470   -30.7380 h1         1 MRB       0.049700
     84 H293       -11.2650   -10.3180   -32.2950 h1         1 MRB       0.049700
     85 H292       -10.7410    -9.2850   -30.9450 h1         1 MRB       0.049700
     86 H331       -19.3710   -10.4890   -29.1160 h4         1 MRB       0.035100
     87 H341       -19.2360    -9.2370   -26.7910 h4         1 MRB       0.159000
     88 H391        -8.2850    -3.2080   -28.5580 hc         1 MRB       0.037256
     89 H393        -9.1190    -3.5390   -30.0730 hc         1 MRB       0.037256
     90 H392        -9.9670    -2.7170   -28.7610 hc         1 MRB       0.037256
     91 H402        -8.7490    -4.4420   -26.5260 hc         1 MRB       0.037256
     92 H401       -10.4700    -4.0680   -26.5660 hc         1 MRB       0.037256
     93 H403        -9.9250    -5.7430   -26.4450 hc         1 MRB       0.037256
     94 H411        -7.6150    -5.5040   -28.5560 hc         1 MRB       0.037256
     95 H412        -8.7320    -6.8490   -28.3850 hc         1 MRB       0.037256
     96 H413        -8.5840    -6.0180   -29.9340 hc         1 MRB       0.037256
     97 H421       -17.1040    -6.2420   -29.8600 h1         1 MRB       0.117700
     98 H432       -17.0560    -5.7360   -32.3290 hc         1 MRB       0.054700
     99 H431       -17.2550    -4.0270   -31.9700 hc         1 MRB       0.054700
    100 H441       -19.3850    -4.5130   -30.7560 h1         1 MRB       0.078700
    101 H442       -19.2170    -6.2200   -31.1390 h1         1 MRB       0.078700
    102 H462       -19.9080    -6.2430   -34.9650 h1         1 MRB       0.062700
    103 H463       -18.2890    -6.2660   -34.2610 h1         1 MRB       0.062700
    104 H461       -19.5920    -7.2320   -33.5330 h1         1 MRB       0.062700
    105 H491       -17.3700    -3.7790   -26.0430 h1         1 MRB       0.104700
    106 H501       -18.6910    -1.9050   -26.1370 hc         1 MRB       0.063700
    107 H511       -20.2320    -3.7280   -26.8800 hc         1 MRB       0.047033
    108 H513       -20.6870    -2.1580   -27.5270 hc         1 MRB       0.047033
    109 H512       -19.8840    -3.3280   -28.5660 hc         1 MRB       0.047033
    110 H522       -18.5660    -0.3010   -27.9310 hc         1 MRB       0.058700
    111 H521       -18.1790    -1.5440   -29.1130 hc         1 MRB       0.058700
    112 H532       -15.9720    -0.8210   -28.5560 h1         1 MRB       0.048700
    113 H531       -16.4090    -0.4590   -26.8840 h1         1 MRB       0.048700
    114 H561       -12.9390    -2.5640   -27.1620 h1         1 MRB       0.085200
    115 H562       -13.9530    -1.2100   -27.6470 h1         1 MRB       0.085200
    116 H031       -15.1770    -3.7600   -31.5990 hn         1 MRB       0.316500
    117 H131       -12.7460    -5.6960   -27.1370 hn         1 MRB       0.353500
    118 H241       -14.3240    -7.6050   -28.5470 hn         1 MRB       0.360500
    119 H471       -16.7740    -3.3350   -29.4920 hn         1 MRB       0.302500
    120 H571       -14.3600    -2.3440   -29.7420 hn         1 MRB       0.472000
    121 O01        -14.6240    -6.1230   -29.6240 o          1 MRB      -0.593100
@<TRIPOS>BOND
     1     1     5 1   
     2     1    16 1   
     3     1    17 1   
     4     1    59 1   
     5     2    17 ar  
     6     2    18 ar  
     7     2    60 1   
     8     3     4 ar  
     9     3    19 ar  
    10     3    61 1   
    11     4    17 ar  
    12     4    62 1   
    13     5    63 1   
    14     5    64 1   
    15     5    65 1   
    16     6    21 1   
    17     6    22 1   
    18     6    66 1   
    19     6    67 1   
    20     7    31 1   
    21     7    43 1   
    22     7   121 2   
    23     8     9 1   
    24     8    13 1   
    25     8    43 1   
    26     8    68 1   
    27     9    10 1   
    28     9    11 1   
    29     9    12 1   
    30    10    69 1   
    31    10    70 1   
    32    10    71 1   
    33    11    72 1   
    34    11    73 1   
    35    11    74 1   
    36    12    75 1   
    37    12    76 1   
    38    12    77 1   
    39    13    44 2   
    40    13    50 1   
    41    14    15 1   
    42    14    27 1   
    43    14    44 1   
    44    14    78 1   
    45    15    45 1   
    46    15    54 2   
    47    16    20 1   
    48    16    45 1   
    49    16    79 1   
    50    18    19 ar  
    51    18    80 1   
    52    19    81 1   
    53    20    46 1   
    54    20    53 2   
    55    21    24 1   
    56    21    46 1   
    57    21    82 1   
    58    22    51 1   
    59    22    52 2   
    60    23    51 1   
    61    23    83 1   
    62    23    84 1   
    63    23    85 1   
    64    24    47 2   
    65    24    57 1   
    66    25    26 2   
    67    25    47 1   
    68    25    86 1   
    69    26    57 1   
    70    26    87 1   
    71    27    28 1   
    72    27    29 1   
    73    27    30 1   
    74    28    88 1   
    75    28    89 1   
    76    28    90 1   
    77    29    91 1   
    78    29    92 1   
    79    29    93 1   
    80    30    94 1   
    81    30    95 1   
    82    30    96 1   
    83    31    32 1   
    84    31    48 1   
    85    31    97 1   
    86    32    33 1   
    87    32    98 1   
    88    32    99 1   
    89    33    58 1   
    90    33   100 1   
    91    33   101 1   
    92    34    58 1   
    93    34   102 1   
    94    34   103 1   
    95    34   104 1   
    96    35    36 1   
    97    35    48 1   
    98    35    56 2   
    99    36    37 1   
   100    36    49 1   
   101    36   105 1   
   102    37    38 1   
   103    37    39 1   
   104    37   106 1   
   105    38   107 1   
   106    38   108 1   
   107    38   109 1   
   108    39    40 1   
   109    39   110 1   
   110    39   111 1   
   111    40    49 1   
   112    40   112 1   
   113    40   113 1   
   114    41    42 1   
   115    41    49 1   
   116    41    55 2   
   117    42    50 1   
   118    42   114 1   
   119    42   115 1   
   120    43   116 1   
   121    45   117 1   
   122    46   118 1   
   123    48   119 1   
   124    50   120 1   
@<TRIPOS>SUBSTRUCTURE
     1 MRB         1 TEMP              0 ****  ****    0 ROOT
