@<TRIPOS>MOLECULE
MRC
   78    79     1     0     0
SMALL
No Charge or Current Charge


@<TRIPOS>ATOM
      1 C1          -3.4800     0.1360    -0.7250 c          1 MRC       0.600300
      2 C2          -3.2520    -0.4620     0.6210 ce         1 MRC      -0.262200
      3 C3          -4.0340    -0.3240     1.7220 c2         1 MRC      -0.034400
      4 C4          -3.6780    -0.9820     3.0500 c3         1 MRC      -0.048200
      5 C5          -3.0710    -0.0060     4.0990 c6         1 MRC       0.141300
      6 C6          -2.8850    -0.6380     5.5200 c6         1 MRC       0.107300
      7 C7          -2.1840     0.4160     6.4370 c6         1 MRC       0.183300
      8 C8          -0.8830     1.0170     5.7980 c6         1 MRC      -0.073700
      9 C9           0.3620     0.0640     5.7850 c3         1 MRC      -0.054400
     10 C10          1.6760     0.7540     5.4360 cx         1 MRC       0.073300
     11 C11          2.8880    -0.0640     5.0940 cx         1 MRC       0.102300
     12 C12          4.2960     0.4580     5.3780 c3         1 MRC      -0.089700
     13 C13          5.2960    -0.0460     4.3000 c3         1 MRC       0.174300
     14 C14          6.7250     0.5190     4.4450 c3         1 MRC      -0.125100
     15 C15         -5.3180     0.4920     1.7850 c3         1 MRC      -0.064900
     16 C16         -1.2190     1.5250     4.3680 c6         1 MRC       0.151600
     17 C18          2.5850    -0.0710   -11.8180 c          1 MRC       0.717000
     18 O1P          2.0000    -0.7470   -12.6510 o          1 MRC      -0.744500
     19 O1Q          3.1230     0.9960   -12.0710 o          1 MRC      -0.744500
     20 C19          2.5920    -0.5620   -10.3580 c3         1 MRC      -0.203400
     21 C20          1.3550    -0.0150    -9.6040 c3         1 MRC      -0.054400
     22 C21          1.2940    -0.4670    -8.1280 c3         1 MRC      -0.079400
     23 C22          0.0590     0.0790    -7.3780 c3         1 MRC      -0.075400
     24 C23         -0.0020    -0.3740    -5.9030 c3         1 MRC      -0.074400
     25 C24         -1.2380     0.1730    -5.1540 c3         1 MRC      -0.075400
     26 C25         -1.2990    -0.2810    -3.6780 c3         1 MRC      -0.084400
     27 C26         -2.5330     0.2650    -2.9330 c3         1 MRC       0.166600
     28 O1A         -2.4760    -0.2240    -1.5830 os         1 MRC      -0.444100
     29 O1B         -4.4250     0.8480    -1.0360 o          1 MRC      -0.504000
     30 O5          -1.8080     0.4670     3.5790 os         1 MRC      -0.425000
     31 O7          -1.9180    -0.1740     7.7120 oh         1 MRC      -0.643000
     32 O6          -2.1280    -1.8720     5.5070 oh         1 MRC      -0.694000
     33 O10          2.1450     0.6350     4.0710 op         1 MRC      -0.432000
     34 C17          4.7170     0.0990     6.8240 c3         1 MRC      -0.084100
     35 O13          4.7990     0.3340     3.0140 oh         1 MRC      -0.644000
     36 H2          -2.3450    -1.0580     0.6830 ha         1 MRC       0.205000
     37 H41         -2.9730    -1.8020     2.8700 hc         1 MRC       0.058200
     38 H42         -4.5720    -1.4600     3.4700 hc         1 MRC       0.058200
     39 H5          -3.7510     0.8540     4.1900 h1         1 MRC       0.035700
     40 H6          -3.8850    -0.8350     5.9330 h1         1 MRC       0.021700
     41 H7          -2.8900     1.2490     6.5720 h1         1 MRC       0.025700
     42 H8          -0.5910     1.8840     6.4070 hc         1 MRC       0.056700
     43 H91          0.1970    -0.7630     5.0850 hc         1 MRC       0.073700
     44 H92          0.4900    -0.4000     6.7700 hc         1 MRC       0.073700
     45 H10          1.8320     1.7260     5.9050 h1         1 MRC       0.073700
     46 H11          2.7910    -1.1510     5.0780 h1         1 MRC       0.090700
     47 H12          4.2750     1.5550     5.3170 hc         1 MRC       0.054700
     48 H13          5.3530    -1.1430     4.3660 h1         1 MRC       0.069700
     49 H141         7.3530     0.1940     3.6060 hc         1 MRC       0.040367
     50 H142         6.7140     1.6150     4.4620 hc         1 MRC       0.040367
     51 H143         7.1980     0.1620     5.3670 hc         1 MRC       0.040367
     52 H151        -5.1200     1.5490     1.5700 hc         1 MRC       0.051033
     53 H152        -6.0490     0.1300     1.0540 hc         1 MRC       0.051033
     54 H153        -5.7980     0.4470     2.7700 hc         1 MRC       0.051033
     55 H161        -1.9250     2.3670     4.4230 h1         1 MRC       0.056700
     56 H162        -0.3130     1.8870     3.8630 h1         1 MRC       0.056700
     57 H2'1         3.4660    -0.1670    -9.8250 hc         1 MRC       0.014700
     58 H2'2         2.5080    -1.6550   -10.3200 hc         1 MRC       0.014700
     59 H3'1         0.4440    -0.3460   -10.1190 hc         1 MRC       0.037700
     60 H3'2         1.3630     1.0810    -9.6440 hc         1 MRC       0.037700
     61 H4'1         2.2030    -0.1360    -7.6110 hc         1 MRC       0.024700
     62 H4'2         1.2830    -1.5640    -8.0870 hc         1 MRC       0.024700
     63 H5'1        -0.8510    -0.2520    -7.8940 hc         1 MRC       0.034200
     64 H5'2         0.0690     1.1750    -7.4180 hc         1 MRC       0.034200
     65 H6'1         0.9070    -0.0430    -5.3870 hc         1 MRC       0.035200
     66 H6'2        -0.0130    -1.4700    -5.8630 hc         1 MRC       0.035200
     67 H7'1        -2.1480    -0.1580    -5.6700 hc         1 MRC       0.037700
     68 H7'2        -1.2270     1.2690    -5.1930 hc         1 MRC       0.037700
     69 H8'1        -0.3920     0.0520    -3.1590 hc         1 MRC       0.051700
     70 H8'2        -1.3130    -1.3770    -3.6360 hc         1 MRC       0.051700
     71 H9'1        -3.4470    -0.0790    -3.4350 h1         1 MRC       0.045700
     72 H9'2        -2.5170     1.3630    -2.9510 h1         1 MRC       0.045700
     73 HO7         -1.7680    -1.1230     7.4940 ho         1 MRC       0.441000
     74 HO6         -2.6200    -2.5130     4.9470 ho         1 MRC       0.500000
     75 H171         4.8360    -0.9850     6.9390 hc         1 MRC       0.036700
     76 H172         5.6640     0.5820     7.0940 hc         1 MRC       0.036700
     77 H173         3.9600     0.4370     7.5410 hc         1 MRC       0.036700
     78 HO13         3.8310     0.4860     3.1400 ho         1 MRC       0.442000
@<TRIPOS>BOND
     1     1     2 1   
     2     1    28 1   
     3     1    29 2   
     4     2     3 2   
     5     2    36 1   
     6     3     4 1   
     7     3    15 1   
     8     4     5 1   
     9     4    37 1   
    10     4    38 1   
    11     5     6 1   
    12     5    30 1   
    13     5    39 1   
    14     6     7 1   
    15     6    32 1   
    16     6    40 1   
    17     7     8 1   
    18     7    31 1   
    19     7    41 1   
    20     8     9 1   
    21     8    16 1   
    22     8    42 1   
    23     9    10 1   
    24     9    43 1   
    25     9    44 1   
    26    10    11 1   
    27    10    33 1   
    28    10    45 1   
    29    11    12 1   
    30    11    33 1   
    31    11    46 1   
    32    12    13 1   
    33    12    34 1   
    34    12    47 1   
    35    13    14 1   
    36    13    35 1   
    37    13    48 1   
    38    14    49 1   
    39    14    50 1   
    40    14    51 1   
    41    15    52 1   
    42    15    53 1   
    43    15    54 1   
    44    16    30 1   
    45    16    55 1   
    46    16    56 1   
    47    17    18 1   
    48    17    19 1   
    49    17    20 1   
    50    20    21 1   
    51    20    57 1   
    52    20    58 1   
    53    21    22 1   
    54    21    59 1   
    55    21    60 1   
    56    22    23 1   
    57    22    61 1   
    58    22    62 1   
    59    23    24 1   
    60    23    63 1   
    61    23    64 1   
    62    24    25 1   
    63    24    65 1   
    64    24    66 1   
    65    25    26 1   
    66    25    67 1   
    67    25    68 1   
    68    26    27 1   
    69    26    69 1   
    70    26    70 1   
    71    27    28 1   
    72    27    71 1   
    73    27    72 1   
    74    31    73 1   
    75    32    74 1   
    76    34    75 1   
    77    34    76 1   
    78    34    77 1   
    79    35    78 1   
@<TRIPOS>SUBSTRUCTURE
     1 MRC         1 TEMP              0 ****  ****    0 ROOT
