@<TRIPOS>MOLECULE
MRC
   78    79     1     0     0
SMALL
abcg2


@<TRIPOS>ATOM
      1 C1          -3.4120    -0.1420    -0.7010 c          1 MRC       0.600300
      2 C2          -3.1520    -0.6450     0.6520 ce         1 MRC      -0.262200
      3 C3          -3.9180    -0.3970     1.7240 c2         1 MRC      -0.034400
      4 C4          -3.5300    -0.9830     3.0500 c3         1 MRC      -0.048200
      5 C5          -2.9730     0.0740     3.9990 c6         1 MRC       0.141300
      6 C6          -2.8160    -0.4540     5.4310 c6         1 MRC       0.107300
      7 C7          -2.1210     0.6170     6.2740 c6         1 MRC       0.183300
      8 C8          -0.8250     1.1160     5.6310 c6         1 MRC      -0.073700
      9 C9           0.3360     0.1170     5.6570 c3         1 MRC      -0.054400
     10 C10          1.6740     0.7700     5.4470 cx         1 MRC       0.073300
     11 C11          2.8080     0.0400     4.8930 cx         1 MRC       0.102300
     12 C12          4.2240     0.3310     5.3240 c3         1 MRC      -0.089700
     13 C13          5.2260    -0.1040     4.2450 c3         1 MRC       0.174300
     14 C14          6.6610     0.2690     4.5890 c3         1 MRC      -0.125100
     15 C15         -5.1620     0.4380     1.7240 c3         1 MRC      -0.064900
     16 C16         -1.1750     1.5660     4.2150 c6         1 MRC       0.151600
     17 C18          2.4640    -0.0200   -11.7750 c          1 MRC       0.717000
     18 O1P          3.5280    -0.2790   -12.3770 o          1 MRC      -0.744500
     19 O1Q          1.4110     0.4060   -12.2900 o          1 MRC      -0.744500
     20 C19          2.4790    -0.2570   -10.2560 c3         1 MRC      -0.203400
     21 C20          1.1850     0.0410    -9.5170 c3         1 MRC      -0.054400
     22 C21          1.2720    -0.2580    -8.0250 c3         1 MRC      -0.079400
     23 C22         -0.0190     0.0410    -7.2760 c3         1 MRC      -0.075400
     24 C23          0.0530    -0.2880    -5.7900 c3         1 MRC      -0.074400
     25 C24         -1.2420     0.0210    -5.0500 c3         1 MRC      -0.075400
     26 C25         -1.1820    -0.3400    -3.5700 c3         1 MRC      -0.084400
     27 C26         -2.4800     0.0080    -2.8740 c3         1 MRC       0.166600
     28 O1A         -2.3830    -0.4050    -1.5070 os         1 MRC      -0.444100
     29 O1B         -4.4110     0.4280    -1.0770 o          1 MRC      -0.504000
     30 O5          -1.7510     0.5200     3.4630 os         1 MRC      -0.425000
     31 O7          -1.8580     0.1970     7.5880 oh         1 MRC      -0.643000
     32 O6          -2.0910    -1.6560     5.5030 oh         1 MRC      -0.694000
     33 O10          2.1150     1.0010     4.1110 op         1 MRC      -0.432000
     34 C17          4.4790    -0.3690     6.6570 c3         1 MRC      -0.084100
     35 O13          4.8600     0.3950     2.9730 oh         1 MRC      -0.644000
     36 H2          -2.2640    -1.2540     0.7730 ha         1 MRC       0.205000
     37 H41         -2.7880    -1.7730     2.9190 hc         1 MRC       0.058200
     38 H42         -4.4180    -1.4300     3.5090 hc         1 MRC       0.058200
     39 H5          -3.6830     0.9170     4.0580 h1         1 MRC       0.035700
     40 H6          -3.8330    -0.5950     5.8300 h1         1 MRC       0.021700
     41 H7          -2.8090     1.4770     6.2780 h1         1 MRC       0.025700
     42 H8          -0.5180     2.0110     6.1870 hc         1 MRC       0.056700
     43 H91          0.1890    -0.6650     4.9100 hc         1 MRC       0.073700
     44 H92          0.3730    -0.3810     6.6280 hc         1 MRC       0.073700
     45 H10          1.8960     1.5930     6.1290 h1         1 MRC       0.073700
     46 H11          2.6310    -0.9950     4.5880 h1         1 MRC       0.090700
     47 H12          4.3240     1.4150     5.4720 hc         1 MRC       0.054700
     48 H13          5.1610    -1.1940     4.1470 h1         1 MRC       0.069700
     49 H141         7.3300     0.0040     3.7700 hc         1 MRC       0.040367
     50 H142         6.7550     1.3420     4.7730 hc         1 MRC       0.040367
     51 H143         7.0130    -0.2520     5.4790 hc         1 MRC       0.040367
     52 H151        -5.0120     1.4100     1.2580 hc         1 MRC       0.051033
     53 H152        -5.9610    -0.0590     1.1730 hc         1 MRC       0.051033
     54 H153        -5.5200     0.6000     2.7400 hc         1 MRC       0.051033
     55 H161        -1.8660     2.4210     4.2620 h1         1 MRC       0.056700
     56 H162        -0.2900     1.8970     3.6720 h1         1 MRC       0.056700
     57 H2'1         3.2940     0.3370    -9.8250 hc         1 MRC       0.014700
     58 H2'2         2.7700    -1.3000   -10.0780 hc         1 MRC       0.014700
     59 H3'1         0.3690    -0.5430    -9.9530 hc         1 MRC       0.037700
     60 H3'2         0.9080     1.0890    -9.6600 hc         1 MRC       0.037700
     61 H4'1         2.0910     0.3210    -7.5820 hc         1 MRC       0.024700
     62 H4'2         1.5400    -1.3110    -7.8810 hc         1 MRC       0.024700
     63 H5'1        -0.8410    -0.5230    -7.7310 hc         1 MRC       0.034200
     64 H5'2        -0.2770     1.0990    -7.4010 hc         1 MRC       0.034200
     65 H6'1         0.8760     0.2700    -5.3310 hc         1 MRC       0.035200
     66 H6'2         0.2980    -1.3480    -5.6660 hc         1 MRC       0.035200
     67 H7'1        -2.0680    -0.5210    -5.5230 hc         1 MRC       0.037700
     68 H7'2        -1.4770     1.0850    -5.1590 hc         1 MRC       0.037700
     69 H8'1        -0.3530     0.1930    -3.0940 hc         1 MRC       0.051700
     70 H8'2        -0.9790    -1.4090    -3.4630 hc         1 MRC       0.051700
     71 H9'1        -3.3200    -0.5020    -3.3540 h1         1 MRC       0.045700
     72 H9'2        -2.6690     1.0830    -2.9300 h1         1 MRC       0.045700
     73 HO7         -2.6840    -0.0880     7.9920 ho         1 MRC       0.441000
     74 HO6         -2.6640    -2.3780     5.2300 ho         1 MRC       0.500000
     75 H171         4.4250    -1.4540     6.5490 hc         1 MRC       0.036700
     76 H172         5.4600    -0.1260     7.0650 hc         1 MRC       0.036700
     77 H173         3.7370    -0.0710     7.3970 hc         1 MRC       0.036700
     78 HO13         4.8870     1.3570     3.0070 ho         1 MRC       0.442000
@<TRIPOS>BOND
     1     1     2 1   
     2     1    28 1   
     3     1    29 2   
     4     2     3 2   
     5     2    36 1   
     6     3     4 1   
     7     3    15 1   
     8     4     5 1   
     9     4    37 1   
    10     4    38 1   
    11     5     6 1   
    12     5    30 1   
    13     5    39 1   
    14     6     7 1   
    15     6    32 1   
    16     6    40 1   
    17     7     8 1   
    18     7    31 1   
    19     7    41 1   
    20     8     9 1   
    21     8    16 1   
    22     8    42 1   
    23     9    10 1   
    24     9    43 1   
    25     9    44 1   
    26    10    11 1   
    27    10    33 1   
    28    10    45 1   
    29    11    12 1   
    30    11    33 1   
    31    11    46 1   
    32    12    13 1   
    33    12    34 1   
    34    12    47 1   
    35    13    14 1   
    36    13    35 1   
    37    13    48 1   
    38    14    49 1   
    39    14    50 1   
    40    14    51 1   
    41    15    52 1   
    42    15    53 1   
    43    15    54 1   
    44    16    30 1   
    45    16    55 1   
    46    16    56 1   
    47    17    18 1   
    48    17    19 1   
    49    17    20 1   
    50    20    21 1   
    51    20    57 1   
    52    20    58 1   
    53    21    22 1   
    54    21    59 1   
    55    21    60 1   
    56    22    23 1   
    57    22    61 1   
    58    22    62 1   
    59    23    24 1   
    60    23    63 1   
    61    23    64 1   
    62    24    25 1   
    63    24    65 1   
    64    24    66 1   
    65    25    26 1   
    66    25    67 1   
    67    25    68 1   
    68    26    27 1   
    69    26    69 1   
    70    26    70 1   
    71    27    28 1   
    72    27    71 1   
    73    27    72 1   
    74    31    73 1   
    75    32    74 1   
    76    34    75 1   
    77    34    76 1   
    78    34    77 1   
    79    35    78 1   
@<TRIPOS>SUBSTRUCTURE
     1 MRC         1 TEMP              0 ****  ****    0 ROOT
