@<TRIPOS>MOLECULE
MRD
   22    21     1     0     0
SMALL
bcc


@<TRIPOS>ATOM
      1 C1          -0.7010    -0.8120    -2.2400 c3         1 MRD      -0.103100
      2 C2          -0.0690    -0.0420    -1.0830 c3         1 MRD       0.155800
      3 O2           1.3410    -0.3000    -1.0460 oh         1 MRD      -0.609800
      4 CM          -0.2090     1.4560    -1.3210 c3         1 MRD      -0.103100
      5 C3          -0.7260    -0.4780     0.2370 c3         1 MRD      -0.144400
      6 C4          -0.2200     0.2110     1.5030 c3         1 MRD       0.159100
      7 O4           1.1570    -0.0290     1.7320 oh         1 MRD      -0.613800
      8 C5          -0.9880    -0.2670     2.7220 c3         1 MRD      -0.093100
      9 H1C1        -0.2420    -0.5340    -3.1900 hc         1 MRD       0.044367
     10 H1C2        -0.5860    -1.8910    -2.1080 hc         1 MRD       0.044367
     11 H1C3        -1.7690    -0.6030    -2.3080 hc         1 MRD       0.044367
     12 H2           1.4750    -1.2550    -1.0660 ho         1 MRD       0.407000
     13 HMC1        -1.2590     1.7490    -1.2960 hc         1 MRD       0.044367
     14 HMC2         0.3190     2.0450    -0.5700 hc         1 MRD       0.044367
     15 HMC3         0.1910     1.7280    -2.2990 hc         1 MRD       0.044367
     16 H3C1        -0.6070    -1.5630     0.3480 hc         1 MRD       0.051200
     17 H3C2        -1.8020    -0.2980     0.1570 hc         1 MRD       0.051200
     18 H4          -0.4010     1.2920     1.4010 h1         1 MRD       0.029700
     19 HA           1.5920    -0.0030     0.8680 ho         1 MRD       0.425000
     20 H5C1        -0.6200     0.2110     3.6320 hc         1 MRD       0.040700
     21 H5C2        -2.0460    -0.0250     2.6250 hc         1 MRD       0.040700
     22 H5C3        -0.8990    -1.3490     2.8440 hc         1 MRD       0.040700
@<TRIPOS>BOND
     1     1     2 1   
     2     1     9 1   
     3     1    10 1   
     4     1    11 1   
     5     2     3 1   
     6     2     4 1   
     7     2     5 1   
     8     3    12 1   
     9     4    13 1   
    10     4    14 1   
    11     4    15 1   
    12     5     6 1   
    13     5    16 1   
    14     5    17 1   
    15     6     7 1   
    16     6     8 1   
    17     6    18 1   
    18     7    19 1   
    19     8    20 1   
    20     8    21 1   
    21     8    22 1   
@<TRIPOS>SUBSTRUCTURE
     1 MRD         1 TEMP              0 ****  ****    0 ROOT
