@<TRIPOS>MOLECULE
MRD
   22    21     1     0     0
SMALL
No Charge or Current Charge


@<TRIPOS>ATOM
      1 C1          -0.6830    -0.9260    -2.2080 c3         1 MRD      -0.103100
      2 C2          -0.0740    -0.1100    -1.0450 c3         1 MRD       0.179000
      3 O2           1.3050    -0.4730    -0.9410 oh         1 MRD      -0.672000
      4 CM          -0.1480     1.4030    -1.3580 c3         1 MRD      -0.103100
      5 C3          -0.7870    -0.4710     0.2930 c3         1 MRD      -0.144400
      6 C4          -0.2590     0.2300     1.5700 c3         1 MRD       0.182300
      7 O4           1.1180    -0.0940     1.7170 oh         1 MRD      -0.676000
      8 C5          -1.0170    -0.1970     2.8410 c3         1 MRD      -0.093100
      9 H1C1        -0.1770    -0.7060    -3.1560 hc         1 MRD       0.044367
     10 H1C2        -0.5940    -2.0040    -2.0190 hc         1 MRD       0.044367
     11 H1C3        -1.7470    -0.6910    -2.3310 hc         1 MRD       0.044367
     12 H2           1.6820    -0.4240    -1.8470 ho         1 MRD       0.446000
     13 HMC1        -1.1900     1.7430    -1.3850 hc         1 MRD       0.044367
     14 HMC2         0.3850     1.9950    -0.6050 hc         1 MRD       0.044367
     15 HMC3         0.3040     1.6240    -2.3330 hc         1 MRD       0.044367
     16 H3C1        -0.7320    -1.5570     0.4410 hc         1 MRD       0.051200
     17 H3C2        -1.8540    -0.2350     0.1910 hc         1 MRD       0.051200
     18 H4          -0.3770     1.3160     1.4530 h1         1 MRD       0.029700
     19 HA           1.4060    -0.2800     0.7820 ho         1 MRD       0.464000
     20 H5C1        -0.6190     0.3230     3.7210 hc         1 MRD       0.040700
     21 H5C2        -2.0820     0.0520     2.7540 hc         1 MRD       0.040700
     22 H5C3        -0.9290    -1.2770     3.0080 hc         1 MRD       0.040700
@<TRIPOS>BOND
     1     1     2 1   
     2     1     9 1   
     3     1    10 1   
     4     1    11 1   
     5     2     3 1   
     6     2     4 1   
     7     2     5 1   
     8     3    12 1   
     9     4    13 1   
    10     4    14 1   
    11     4    15 1   
    12     5     6 1   
    13     5    16 1   
    14     5    17 1   
    15     6     7 1   
    16     6     8 1   
    17     6    18 1   
    18     7    19 1   
    19     8    20 1   
    20     8    21 1   
    21     8    22 1   
@<TRIPOS>SUBSTRUCTURE
     1 MRD         1 TEMP              0 ****  ****    0 ROOT
