@<TRIPOS>MOLECULE
MRE
   34    35     1     0     0
SMALL
abcg2


@<TRIPOS>ATOM
      1 C1          16.0450    13.1810    22.1710 ca         1 MRE       0.096400
      2 C2          16.5120    13.8930    23.2870 ca         1 MRE      -0.083600
      3 C3          15.6270    14.7650    23.9150 ca         1 MRE      -0.107000
      4 C4          14.3380    14.9690    23.4400 ca         1 MRE      -0.123000
      5 C5          13.8990    14.2850    22.3140 ca         1 MRE      -0.157000
      6 C6          14.7570    13.3980    21.6840 ca         1 MRE      -0.100000
      7 C7          18.3770    10.6330    21.5480 ca         1 MRE       0.053400
      8 C8          18.3250    10.3140    20.1860 ca         1 MRE      -0.031000
      9 C9          19.1260     9.3290    19.6580 ca         1 MRE      -0.212000
     10 C10         20.0320     8.6020    20.4700 ca         1 MRE       0.334000
     11 C11         20.0870     8.9410    21.8390 ca         1 MRE      -0.212000
     12 C12         19.2740     9.9290    22.3520 ca         1 MRE      -0.031000
     13 C           17.9530    13.8590    23.7780 c          1 MRE       0.725600
     14 CHX         20.7620     7.3190    18.5380 c3         1 MRE       0.230600
     15 CHZ         21.7190     6.8870    20.8040 c3         1 MRE       0.230600
     16 N1          16.7940    12.2160    21.4790 ne         1 MRE      -0.219400
     17 N2          17.5980    11.5910    22.1890 nf         1 MRE      -0.148400
     18 OXT         18.1150    13.6020    24.9850 o          1 MRE      -0.711500
     19 O           18.8170    14.1720    22.9420 o          1 MRE      -0.711500
     20 N10         20.8100     7.6200    19.9510 nh         1 MRE      -0.842400
     21 H6          14.4310    12.8450    20.8110 ha         1 MRE       0.097000
     22 H3          15.9620    15.3140    24.7870 ha         1 MRE       0.118000
     23 H4          13.6810    15.6670    23.9440 ha         1 MRE       0.085000
     24 H5          12.8980    14.4370    21.9330 ha         1 MRE       0.086000
     25 H2          17.6410    10.8410    19.5340 ha         1 MRE       0.132000
     26 H1          19.3280    10.1730    23.4060 ha         1 MRE       0.132000
     27 H7          19.0450     9.1150    18.6020 ha         1 MRE       0.100500
     28 H8          20.7660     8.4330    22.5070 ha         1 MRE       0.100500
     29 HHX1        21.0670     8.1700    17.9240 h1         1 MRE       0.028533
     30 HHX2        21.4400     6.4980    18.3240 h1         1 MRE       0.028533
     31 HHX3        19.7620     7.0130    18.2190 h1         1 MRE       0.028533
     32 HHZ1        22.2090     6.1130    20.2210 h1         1 MRE       0.028533
     33 HHZ2        22.4960     7.5270    21.2300 h1         1 MRE       0.028533
     34 HHZ3        21.1950     6.3990    21.6300 h1         1 MRE       0.028533
@<TRIPOS>BOND
     1     1     2 ar  
     2     1     6 ar  
     3     1    16 1   
     4     2     3 ar  
     5     2    13 1   
     6     3     4 ar  
     7     3    22 1   
     8     4     5 ar  
     9     4    23 1   
    10     5     6 ar  
    11     5    24 1   
    12     6    21 1   
    13     7     8 ar  
    14     7    12 ar  
    15     7    17 1   
    16     8     9 ar  
    17     8    25 1   
    18     9    10 ar  
    19     9    27 1   
    20    10    11 ar  
    21    10    20 1   
    22    11    12 ar  
    23    11    28 1   
    24    12    26 1   
    25    13    18 1   
    26    13    19 1   
    27    14    20 1   
    28    14    29 1   
    29    14    30 1   
    30    14    31 1   
    31    15    20 1   
    32    15    32 1   
    33    15    33 1   
    34    15    34 1   
    35    16    17 2   
@<TRIPOS>SUBSTRUCTURE
     1 MRE         1 TEMP              0 ****  ****    0 ROOT
