@<TRIPOS>MOLECULE
MRE
   34    35     1     0     0
SMALL
No Charge or Current Charge


@<TRIPOS>ATOM
      1 C1          16.3090    13.3770    22.2610 ca         1 MRE       0.096400
      2 C2          16.5400    14.0210    23.5010 ca         1 MRE      -0.083600
      3 C3          15.5560    14.8910    24.0220 ca         1 MRE      -0.107000
      4 C4          14.3660    15.1310    23.3160 ca         1 MRE      -0.123000
      5 C5          14.1450    14.5010    22.0820 ca         1 MRE      -0.157000
      6 C6          15.1120    13.6270    21.5590 ca         1 MRE      -0.100000
      7 C7          18.0510    10.3630    21.5100 ca         1 MRE       0.053400
      8 C8          17.7590     9.6670    20.3240 ca         1 MRE      -0.031000
      9 C9          18.6940     8.7640    19.7850 ca         1 MRE      -0.212000
     10 C10         19.9310     8.5400    20.4230 ca         1 MRE       0.334000
     11 C11         20.2130     9.2400    21.6140 ca         1 MRE      -0.212000
     12 C12         19.2810    10.1450    22.1550 ca         1 MRE      -0.031000
     13 C           17.8100    13.7880    24.2790 c          1 MRE       0.725600
     14 CHX         20.9200     7.3420    18.4260 c3         1 MRE       0.230600
     15 CHZ         21.8500     6.9220    20.7380 c3         1 MRE       0.230600
     16 N1          17.2450    12.4770    21.7130 ne         1 MRE      -0.219400
     17 N2          17.1090    11.2660    22.0560 nf         1 MRE      -0.148400
     18 OXT         17.7100    13.3770    25.4270 o          1 MRE      -0.711500
     19 O           18.8750    14.1170    23.7720 o          1 MRE      -0.711500
     20 N10         20.8710     7.6290    19.8790 nh         1 MRE      -0.842400
     21 H6          14.9320    13.1360    20.6060 ha         1 MRE       0.097000
     22 H3          15.7240    15.3860    24.9770 ha         1 MRE       0.118000
     23 H4          13.6180    15.8060    23.7250 ha         1 MRE       0.085000
     24 H5          13.2250    14.6860    21.5340 ha         1 MRE       0.086000
     25 H2          16.8070     9.8270    19.8220 ha         1 MRE       0.132000
     26 H1          19.5130    10.6800    23.0730 ha         1 MRE       0.132000
     27 H7          18.4400     8.2320    18.8730 ha         1 MRE       0.100500
     28 H8          21.1600     9.0990    22.1250 ha         1 MRE       0.100500
     29 HHX1        20.7010     8.2490    17.8470 h1         1 MRE       0.028533
     30 HHX2        21.9190     6.9940    18.1310 h1         1 MRE       0.028533
     31 HHX3        20.1880     6.5670    18.1630 h1         1 MRE       0.028533
     32 HHZ1        22.1790     5.9860    20.2650 h1         1 MRE       0.028533
     33 HHZ2        22.7320     7.5520    20.9140 h1         1 MRE       0.028533
     34 HHZ3        21.3990     6.6640    21.7050 h1         1 MRE       0.028533
@<TRIPOS>BOND
     1     1     2 ar  
     2     1     6 ar  
     3     1    16 1   
     4     2     3 ar  
     5     2    13 1   
     6     3     4 ar  
     7     3    22 1   
     8     4     5 ar  
     9     4    23 1   
    10     5     6 ar  
    11     5    24 1   
    12     6    21 1   
    13     7     8 ar  
    14     7    12 ar  
    15     7    17 1   
    16     8     9 ar  
    17     8    25 1   
    18     9    10 ar  
    19     9    27 1   
    20    10    11 ar  
    21    10    20 1   
    22    11    12 ar  
    23    11    28 1   
    24    12    26 1   
    25    13    18 1   
    26    13    19 1   
    27    14    20 1   
    28    14    29 1   
    29    14    30 1   
    30    14    31 1   
    31    15    20 1   
    32    15    32 1   
    33    15    33 1   
    34    15    34 1   
    35    16    17 2   
@<TRIPOS>SUBSTRUCTURE
     1 MRE         1 TEMP              0 ****  ****    0 ROOT
