@<TRIPOS>MOLECULE
MRF
   55    57     1     0     0
SMALL
No Charge or Current Charge


@<TRIPOS>ATOM
      1 C1          20.8050    24.7290    -3.2140 c          1 MRF       0.590100
      2 C2          22.3130    24.4450    -3.2370 c3         1 MRF       0.037600
      3 C3          18.7770    24.7710    -1.7130 c3         1 MRF       0.109000
      4 C4          17.9300    23.5480    -2.1710 c6         1 MRF      -0.086700
      5 C5          18.3960    22.2220    -1.5110 c6         1 MRF      -0.092400
      6 C6          17.5050    21.0310    -1.9390 c6         1 MRF       0.096000
      7 C11         19.6870    20.9880     2.1430 ca         1 MRF      -0.068500
      8 C12         18.9970    21.8880     2.9700 ca         1 MRF       0.082000
      9 C13         17.5950    21.8430     3.0420 ca         1 MRF      -0.068500
     10 C14         16.8790    20.9050     2.2760 ca         1 MRF      -0.162500
     11 C15         14.4810    18.7640     0.8630 c6         1 MRF      -0.116900
     12 C16         14.5950    17.2600     1.1990 c6         1 MRF       0.151300
     13 C17         15.7450    16.8300    -0.9250 c6         1 MRF       0.151300
     14 C18         15.6730    18.3310    -1.3010 c6         1 MRF      -0.116900
     15 O1          20.1700    25.0290    -4.2180 o          1 MRF      -0.607100
     16 N1          20.2120    24.6160    -1.9740 ns         1 MRF      -0.491900
     17 N2          16.0660    21.2930    -1.6530 n          1 MRF      -0.402800
     18 C7          15.4260    20.7800    -0.4950 c          1 MRF       0.581100
     19 O2          14.7240    21.5350     0.1720 o          1 MRF      -0.614100
     20 C8          15.6550    19.2720    -0.0450 c6         1 MRF       0.124000
     21 O3          16.9410    19.0750     0.6240 os         1 MRF      -0.360100
     22 C9          17.5650    20.0160     1.4210 ca         1 MRF       0.144100
     23 C10         18.9690    20.0520     1.3780 ca         1 MRF      -0.162500
     24 N3          14.6240    16.4490    -0.0380 n7         1 MRF      -0.841400
     25 C19         15.5820    22.5420    -2.3000 c6         1 MRF       0.096000
     26 C20         16.4230    23.7710    -1.8800 c6         1 MRF      -0.092400
     27 H1          22.6970    24.6520    -4.2430 h1         1 MRF       0.096700
     28 H2          22.8080    25.1040    -2.5150 h1         1 MRF       0.096700
     29 Cl1         22.7250    22.7140    -2.8100 cl         1 MRF      -0.280000
     30 H4          18.6350    24.9210    -0.6340 h1         1 MRF       0.062200
     31 H5          18.4170    25.6730    -2.2270 h1         1 MRF       0.062200
     32 H6          18.0620    23.4620    -3.2590 hc         1 MRF       0.063700
     33 H7          18.3670    22.3230    -0.4170 hc         1 MRF       0.053200
     34 H8          19.4390    22.0040    -1.7770 hc         1 MRF       0.053200
     35 H9          17.6270    20.8510    -3.0170 h1         1 MRF       0.062450
     36 H10         17.8630    20.1330    -1.4210 h1         1 MRF       0.062450
     37 H11         20.7720    21.0180     2.0940 ha         1 MRF       0.131500
     38 H12         17.0640    22.5330     3.6940 ha         1 MRF       0.131500
     39 H13         15.8010    20.8840     2.3680 ha         1 MRF       0.134500
     40 H14         14.4280    19.3290     1.7990 hc         1 MRF       0.065200
     41 H15         13.5230    18.9460     0.3560 hc         1 MRF       0.065200
     42 H16         13.7390    16.9560     1.8220 h1         1 MRF       0.060950
     43 H17         15.5090    17.0800     1.7860 h1         1 MRF       0.060950
     44 H18         15.7160    16.2200    -1.8410 h1         1 MRF       0.060950
     45 H19         16.7020    16.6210    -0.4240 h1         1 MRF       0.060950
     46 H20         16.5170    18.5500    -1.9620 hc         1 MRF       0.065200
     47 H21         14.7710    18.5080    -1.9030 hc         1 MRF       0.065200
     48 H22         20.8160    24.3490    -1.2050 hn         1 MRF       0.330500
     49 H23         19.5030    19.3580     0.7340 ha         1 MRF       0.134500
     50 H24         13.7410    16.5940    -0.5450 hn         1 MRF       0.402000
     51 H26         14.5240    22.7140    -2.0550 h1         1 MRF       0.062450
     52 H27         15.6390    22.4190    -3.3910 h1         1 MRF       0.062450
     53 H28         16.0620    24.6620    -2.4120 hc         1 MRF       0.053200
     54 H29         16.2730    23.9630    -0.8080 hc         1 MRF       0.053200
     55 Cl2         19.8890    23.0660     3.9240 cl         1 MRF      -0.212000
@<TRIPOS>BOND
     1     1     2 1   
     2     1    15 2   
     3     1    16 1   
     4     2    27 1   
     5     2    28 1   
     6     2    29 1   
     7     3     4 1   
     8     3    16 1   
     9     3    30 1   
    10     3    31 1   
    11     4     5 1   
    12     4    26 1   
    13     4    32 1   
    14     5     6 1   
    15     5    33 1   
    16     5    34 1   
    17     6    17 1   
    18     6    35 1   
    19     6    36 1   
    20     7     8 ar  
    21     7    23 ar  
    22     7    37 1   
    23     8     9 ar  
    24     8    55 1   
    25     9    10 ar  
    26     9    38 1   
    27    10    22 ar  
    28    10    39 1   
    29    11    12 1   
    30    11    20 1   
    31    11    40 1   
    32    11    41 1   
    33    12    24 1   
    34    12    42 1   
    35    12    43 1   
    36    13    14 1   
    37    13    24 1   
    38    13    44 1   
    39    13    45 1   
    40    14    20 1   
    41    14    46 1   
    42    14    47 1   
    43    16    48 1   
    44    17    18 1   
    45    17    25 1   
    46    18    19 2   
    47    18    20 1   
    48    20    21 1   
    49    21    22 1   
    50    22    23 ar  
    51    23    49 1   
    52    24    50 1   
    53    25    26 1   
    54    25    51 1   
    55    25    52 1   
    56    26    53 1   
    57    26    54 1   
@<TRIPOS>SUBSTRUCTURE
     1 MRF         1 TEMP              0 ****  ****    0 ROOT
