@<TRIPOS>MOLECULE
MRF
   55    57     1     0     0
SMALL
abcg2


@<TRIPOS>ATOM
      1 C1          20.8120    24.8900    -3.0250 c          1 MRF       0.590100
      2 C2          22.2550    24.6300    -3.4290 c3         1 MRF       0.037600
      3 C3          18.9820    24.5080    -1.4410 c3         1 MRF       0.109000
      4 C4          18.0240    23.4580    -2.0060 c6         1 MRF      -0.086700
      5 C5          18.4070    22.0420    -1.5750 c6         1 MRF      -0.092400
      6 C6          17.3770    21.0070    -2.0260 c6         1 MRF       0.096000
      7 C11         19.4570    20.7590     2.3460 ca         1 MRF      -0.068500
      8 C12         18.7770    21.8560     2.8610 ca         1 MRF       0.082000
      9 C13         17.4470    22.0780     2.5450 ca         1 MRF      -0.068500
     10 C14         16.7820    21.2040     1.6890 ca         1 MRF      -0.162500
     11 C15         14.6460    18.8460     0.8990 c6         1 MRF      -0.116900
     12 C16         14.9450    17.4120     1.3430 c6         1 MRF       0.151300
     13 C17         15.7540    16.8250    -0.8590 c6         1 MRF       0.151300
     14 C18         15.5130    18.2520    -1.3650 c6         1 MRF      -0.116900
     15 O1          20.1480    25.6070    -3.7750 o          1 MRF      -0.607100
     16 N1          20.3540    24.3440    -1.8970 ns         1 MRF      -0.491900
     17 N2          16.0300    21.3760    -1.5760 n          1 MRF      -0.402800
     18 C7          15.1800    20.6750    -0.7950 c          1 MRF       0.581100
     19 O2          14.0430    21.0840    -0.5410 o          1 MRF      -0.614100
     20 C8          15.5900    19.2860    -0.2290 c6         1 MRF       0.124000
     21 O3          16.9540    19.2330     0.2400 os         1 MRF      -0.360100
     22 C9          17.4590    20.1120     1.1480 ca         1 MRF       0.144100
     23 C10         18.7950    19.8910     1.4940 ca         1 MRF      -0.162500
     24 N3          14.8860    16.4350     0.2530 n7         1 MRF      -0.841400
     25 C19         15.6210    22.6960    -2.0670 c6         1 MRF       0.096000
     26 C20         16.5890    23.7680    -1.5780 c6         1 MRF      -0.092400
     27 H1          22.2610    24.1590    -4.4080 h1         1 MRF       0.096700
     28 H2          22.7770    25.5830    -3.4810 h1         1 MRF       0.096700
     29 CL1         23.2160    23.5640    -2.3290 cl         1 MRF      -0.280000
     30 H4          18.9890    24.4540    -0.3510 h1         1 MRF       0.062200
     31 H5          18.6480    25.5050    -1.7290 h1         1 MRF       0.062200
     32 H6          18.0720    23.5120    -3.1000 hc         1 MRF       0.063700
     33 H7          18.4990    22.0100    -0.4870 hc         1 MRF       0.053200
     34 H8          19.3790    21.7660    -1.9910 hc         1 MRF       0.053200
     35 H9          17.3540    20.9660    -3.1200 h1         1 MRF       0.062450
     36 H10         17.6420    20.0260    -1.6590 h1         1 MRF       0.062450
     37 H11         20.4940    20.5890     2.6000 ha         1 MRF       0.131500
     38 H12         16.9230    22.9320     2.9510 ha         1 MRF       0.131500
     39 H13         15.7520    21.4100     1.4490 ha         1 MRF       0.134500
     40 H14         14.7190    19.5240     1.7490 hc         1 MRF       0.065200
     41 H15         13.6230    18.9060     0.5290 hc         1 MRF       0.065200
     42 H16         14.2310    17.1180     2.1140 h1         1 MRF       0.060950
     43 H17         15.9420    17.3610     1.7900 h1         1 MRF       0.060950
     44 H18         15.6070    16.1240    -1.6830 h1         1 MRF       0.060950
     45 H19         16.7910    16.7270    -0.5310 h1         1 MRF       0.060950
     46 H20         16.2300    18.4960    -2.1480 hc         1 MRF       0.065200
     47 H21         14.5130    18.3220    -1.8020 hc         1 MRF       0.065200
     48 H22         20.9760    23.7540    -1.3660 hn         1 MRF       0.330500
     49 H23         19.3120    19.0420     1.0670 ha         1 MRF       0.134500
     50 H24         13.9290    16.3810    -0.0830 hn         1 MRF       0.402000
     51 H26         14.6100    22.8900    -1.7270 h1         1 MRF       0.062450
     52 H27         15.6180    22.6640    -3.1620 h1         1 MRF       0.062450
     53 H28         16.2770    24.7380    -1.9720 hc         1 MRF       0.053200
     54 H29         16.5340    23.8240    -0.4860 hc         1 MRF       0.053200
     55 CL2         19.6160    22.9730     3.9220 cl         1 MRF      -0.212000
@<TRIPOS>BOND
     1     1     2 1   
     2     1    15 2   
     3     1    16 1   
     4     2    27 1   
     5     2    28 1   
     6     2    29 1   
     7     3     4 1   
     8     3    16 1   
     9     3    30 1   
    10     3    31 1   
    11     4     5 1   
    12     4    26 1   
    13     4    32 1   
    14     5     6 1   
    15     5    33 1   
    16     5    34 1   
    17     6    17 1   
    18     6    35 1   
    19     6    36 1   
    20     7     8 ar  
    21     7    23 ar  
    22     7    37 1   
    23     8     9 ar  
    24     8    55 1   
    25     9    10 ar  
    26     9    38 1   
    27    10    22 ar  
    28    10    39 1   
    29    11    12 1   
    30    11    20 1   
    31    11    40 1   
    32    11    41 1   
    33    12    24 1   
    34    12    42 1   
    35    12    43 1   
    36    13    14 1   
    37    13    24 1   
    38    13    44 1   
    39    13    45 1   
    40    14    20 1   
    41    14    46 1   
    42    14    47 1   
    43    16    48 1   
    44    17    18 1   
    45    17    25 1   
    46    18    19 2   
    47    18    20 1   
    48    20    21 1   
    49    21    22 1   
    50    22    23 ar  
    51    23    49 1   
    52    24    50 1   
    53    25    26 1   
    54    25    51 1   
    55    25    52 1   
    56    26    53 1   
    57    26    54 1   
@<TRIPOS>SUBSTRUCTURE
     1 MRF         1 TEMP              0 ****  ****    0 ROOT
