@<TRIPOS>MOLECULE
MRH
   29    29     1     0     0
SMALL
abcg2


@<TRIPOS>ATOM
      1 C1           2.4450     0.6390    -0.1570 c6         1 MRH       0.351300
      2 O5           1.4940     1.5550     0.3070 os         1 MRH      -0.471000
      3 C5           0.1760     1.3950    -0.1920 c6         1 MRH       0.166300
      4 C6          -0.6790     2.4590     0.4650 c3         1 MRH      -0.085100
      5 C4          -0.3510    -0.0230     0.0850 c6         1 MRH       0.082700
      6 N4          -1.6300    -0.1990    -0.5570 ns         1 MRH      -0.502900
      7 C7          -2.7610    -0.5660     0.0730 c          1 MRH       0.609100
      8 C8          -3.9620    -0.7350    -0.8240 c3         1 MRH      -0.181100
      9 O7          -2.8320    -0.7500     1.2800 o          1 MRH      -0.593100
     10 C3           0.6440    -1.0710    -0.4120 c6         1 MRH       0.169300
     11 O3           0.1570    -2.3400    -0.0610 oh         1 MRH      -0.687000
     12 C2           2.0280    -0.7950     0.1720 c6         1 MRH       0.120300
     13 O2           1.9580    -0.9800     1.5630 oh         1 MRH      -0.683000
     14 O1           2.6470     0.7160    -1.5330 oh         1 MRH      -0.744000
     15 H1           3.3630     0.8940     0.3890 h2         1 MRH       0.061700
     16 H2           0.1670     1.5540    -1.2800 h1         1 MRH       0.032700
     17 H3          -0.3100     3.4560     0.2240 hc         1 MRH       0.048367
     18 H4          -1.7080     2.3950     0.1140 hc         1 MRH       0.048367
     19 H5          -0.6820     2.3440     1.5500 hc         1 MRH       0.048367
     20 H6          -0.5010    -0.1450     1.1590 h1         1 MRH       0.123700
     21 H7          -1.6590    -0.0980    -1.5590 hn         1 MRH       0.303500
     22 H8          -4.2820    -1.7770    -0.8050 hc         1 MRH       0.058033
     23 H9          -4.7880    -0.1360    -0.4420 hc         1 MRH       0.058033
     24 H10         -3.7790    -0.4520    -1.8590 hc         1 MRH       0.058033
     25 H11          0.7220    -0.9730    -1.5040 h1         1 MRH       0.040700
     26 H12          0.6160    -2.9990    -0.5910 ho         1 MRH       0.499000
     27 H13          2.7570    -1.4800    -0.2840 h1         1 MRH       0.045700
     28 H14          2.8460    -0.9030     1.9260 ho         1 MRH       0.500000
     29 H15          3.0570     1.5610    -1.7440 ho         1 MRH       0.520000
@<TRIPOS>BOND
     1     1     2 1   
     2     1    12 1   
     3     1    14 1   
     4     1    15 1   
     5     2     3 1   
     6     3     4 1   
     7     3     5 1   
     8     3    16 1   
     9     4    17 1   
    10     4    18 1   
    11     4    19 1   
    12     5     6 1   
    13     5    10 1   
    14     5    20 1   
    15     6     7 1   
    16     6    21 1   
    17     7     8 1   
    18     7     9 2   
    19     8    22 1   
    20     8    23 1   
    21     8    24 1   
    22    10    11 1   
    23    10    12 1   
    24    10    25 1   
    25    11    26 1   
    26    12    13 1   
    27    12    27 1   
    28    13    28 1   
    29    14    29 1   
@<TRIPOS>SUBSTRUCTURE
     1 MRH         1 TEMP              0 ****  ****    0 ROOT
