@<TRIPOS>MOLECULE
MRH
   29    29     1     0     0
SMALL
No Charge or Current Charge


@<TRIPOS>ATOM
      1 C1           2.5110     0.6220    -0.1760 c6         1 MRH       0.351300
      2 O5           1.4910     1.4780     0.3670 os         1 MRH      -0.471000
      3 C5           0.1650     1.3050    -0.1960 c6         1 MRH       0.166300
      4 C6          -0.7310     2.3740     0.4780 c3         1 MRH      -0.085100
      5 C4          -0.3370    -0.1590     0.0170 c6         1 MRH       0.082700
      6 N4          -1.6750    -0.3880    -0.5800 ns         1 MRH      -0.502900
      7 C7          -2.8790    -0.2730     0.0740 c          1 MRH       0.609100
      8 C8          -4.1020    -0.5710    -0.7830 c3         1 MRH      -0.181100
      9 O7          -2.9610     0.0410     1.2520 o          1 MRH      -0.593100
     10 C3           0.7150    -1.1480    -0.5840 c6         1 MRH       0.169300
     11 O3           0.3420    -2.5120    -0.3210 oh         1 MRH      -0.687000
     12 C2           2.1280    -0.8900     0.0210 c6         1 MRH       0.120300
     13 O2           2.1110    -1.2850     1.4190 oh         1 MRH      -0.683000
     14 O1           2.6650     0.9690    -1.5490 oh         1 MRH      -0.744000
     15 H1           3.4580     0.8170     0.3530 h2         1 MRH       0.061700
     16 H2           0.1970     1.5270    -1.2730 h1         1 MRH       0.032700
     17 H3          -0.2940     3.3740     0.3720 hc         1 MRH       0.048367
     18 H4          -1.7260     2.4050     0.0210 hc         1 MRH       0.048367
     19 H5          -0.8560     2.1730     1.5480 hc         1 MRH       0.048367
     20 H6          -0.3990    -0.3400     1.1000 h1         1 MRH       0.123700
     21 H7          -1.7200    -0.6860    -1.5470 hn         1 MRH       0.303500
     22 H8          -3.9960    -1.5690    -1.2220 hc         1 MRH       0.058033
     23 H9          -5.0410    -0.4700    -0.2270 hc         1 MRH       0.058033
     24 H10         -4.0840     0.0760    -1.6670 hc         1 MRH       0.058033
     25 H11          0.7630    -0.9830    -1.6710 h1         1 MRH       0.040700
     26 H12          0.7540    -2.6980     0.5570 ho         1 MRH       0.499000
     27 H13          2.8600    -1.5010    -0.5280 h1         1 MRH       0.045700
     28 H14          3.0000    -1.0840     1.7940 ho         1 MRH       0.500000
     29 H15          2.7940     1.9440    -1.5450 ho         1 MRH       0.520000
@<TRIPOS>BOND
     1     1     2 1   
     2     1    12 1   
     3     1    14 1   
     4     1    15 1   
     5     2     3 1   
     6     3     4 1   
     7     3     5 1   
     8     3    16 1   
     9     4    17 1   
    10     4    18 1   
    11     4    19 1   
    12     5     6 1   
    13     5    10 1   
    14     5    20 1   
    15     6     7 1   
    16     6    21 1   
    17     7     8 1   
    18     7     9 2   
    19     8    22 1   
    20     8    23 1   
    21     8    24 1   
    22    10    11 1   
    23    10    12 1   
    24    10    25 1   
    25    11    26 1   
    26    12    13 1   
    27    12    27 1   
    28    13    28 1   
    29    14    29 1   
@<TRIPOS>SUBSTRUCTURE
     1 MRH         1 TEMP              0 ****  ****    0 ROOT
