@<TRIPOS>MOLECULE
MRI
   32    34     1     0     0
SMALL
bcc


@<TRIPOS>ATOM
      1 OAB         -0.8050     2.6480     0.1040 oh         1 MRI      -0.479100
      2 CAM         -0.0220     1.5610     0.0020 cc         1 MRI      -0.067100
      3 CAN          1.4150     1.7440     0.0150 c          1 MRI       0.581900
      4 OAD          1.9010     2.8840     0.1000 o          1 MRI      -0.619100
      5 CAI          2.1980     0.5450    -0.0560 ca         1 MRI      -0.382600
      6 CAO          3.6150     0.5790    -0.0350 ca         1 MRI       0.291100
      7 OAC          4.2630     1.7360     0.0510 oh         1 MRI      -0.497100
      8 CAS          4.3340    -0.5980    -0.1030 ca         1 MRI      -0.333000
      9 CAR          3.6590    -1.8210    -0.1910 ca         1 MRI       0.249100
     10 OAF          4.3240    -2.9780    -0.2610 oh         1 MRI      -0.481100
     11 CAP          2.2710    -1.8880    -0.2100 ca         1 MRI      -0.259000
     12 CAJ          1.5650    -0.7000    -0.1430 ca         1 MRI       0.250100
     13 OAA          0.2280    -0.7760    -0.1740 os         1 MRI      -0.184200
     14 CAK         -0.5550     0.3230    -0.0950 cd         1 MRI       0.169900
     15 CAL         -1.9870     0.0250    -0.1330 ca         1 MRI      -0.132800
     16 CAT         -2.8030     0.5780    -1.1150 ca         1 MRI      -0.004000
     17 CAV         -4.1570     0.3040    -1.1770 ca         1 MRI      -0.271000
     18 CAW         -4.7200    -0.5470    -0.2270 ca         1 MRI       0.202100
     19 OAG         -6.0240    -0.8640    -0.2250 oh         1 MRI      -0.489100
     20 CAU         -3.9280    -1.1050     0.7720 ca         1 MRI      -0.278000
     21 CAQ         -2.5700    -0.8190     0.8230 ca         1 MRI       0.216100
     22 OAE         -1.7750    -1.3100     1.7840 oh         1 MRI      -0.479100
     23 H1          -0.2340     3.4280     0.1540 ho         1 MRI       0.447000
     24 H2           3.5990     2.4600     0.0930 ho         1 MRI       0.482000
     25 H3           5.4170    -0.5660    -0.0880 ha         1 MRI       0.155000
     26 H4           5.2770    -2.8300    -0.2370 ho         1 MRI       0.438000
     27 H5           1.7560    -2.8370    -0.2810 ha         1 MRI       0.172000
     28 H6          -2.3640     1.2270    -1.8610 ha         1 MRI       0.144000
     29 H7          -4.7660     0.7420    -1.9580 ha         1 MRI       0.140000
     30 H8          -6.4780    -0.4310    -0.9570 ho         1 MRI       0.432000
     31 H9          -4.3790    -1.7540     1.5150 ha         1 MRI       0.151000
     32 H10         -2.2810    -1.8500     2.4020 ho         1 MRI       0.433000
@<TRIPOS>BOND
     1     1     2 1   
     2     1    23 1   
     3     2     3 1   
     4     2    14 2   
     5     3     4 2   
     6     3     5 1   
     7     5     6 ar  
     8     5    12 ar  
     9     6     7 1   
    10     6     8 ar  
    11     7    24 1   
    12     8     9 ar  
    13     8    25 1   
    14     9    10 1   
    15     9    11 ar  
    16    10    26 1   
    17    11    12 ar  
    18    11    27 1   
    19    12    13 1   
    20    13    14 1   
    21    14    15 1   
    22    15    16 ar  
    23    15    21 ar  
    24    16    17 ar  
    25    16    28 1   
    26    17    18 ar  
    27    17    29 1   
    28    18    19 1   
    29    18    20 ar  
    30    19    30 1   
    31    20    21 ar  
    32    20    31 1   
    33    21    22 1   
    34    22    32 1   
@<TRIPOS>SUBSTRUCTURE
     1 MRI         1 TEMP              0 ****  ****    0 ROOT
