@<TRIPOS>MOLECULE
MRI
   32    34     1     0     0
SMALL
No Charge or Current Charge


@<TRIPOS>ATOM
      1 OAB         -0.6970     2.8240    -0.2550 oh         1 MRI      -0.518100
      2 CAM         -0.0170     1.6420    -0.1720 cc         1 MRI      -0.067100
      3 CAN          1.4570     1.8100    -0.2360 c          1 MRI       0.581900
      4 OAD          1.9880     2.9090    -0.3770 o          1 MRI      -0.619100
      5 CAI          2.2700     0.5720    -0.1260 ca         1 MRI      -0.382600
      6 CAO          3.6720     0.5850    -0.1680 ca         1 MRI       0.291100
      7 OAC          4.3440     1.7520    -0.3140 oh         1 MRI      -0.536100
      8 CAS          4.3960    -0.6050    -0.0600 ca         1 MRI      -0.315000
      9 CAR          3.7200    -1.8180     0.0900 ca         1 MRI       0.249100
     10 OAF          4.4170    -2.9800     0.1950 oh         1 MRI      -0.520100
     11 CAP          2.3250    -1.8410     0.1320 ca         1 MRI      -0.241000
     12 CAJ          1.6010    -0.6470     0.0260 ca         1 MRI       0.250100
     13 OAA          0.2300    -0.7030     0.0680 os         1 MRI      -0.184200
     14 CAK         -0.5960     0.3940     0.0350 cd         1 MRI       0.169900
     15 CAL         -2.0470     0.0470    -0.0200 ca         1 MRI      -0.132800
     16 CAT         -2.9420     0.8500    -0.7680 ca         1 MRI       0.014000
     17 CAV         -4.3080     0.5320    -0.8490 ca         1 MRI      -0.253000
     18 CAW         -4.8060    -0.5890    -0.1830 ca         1 MRI       0.202100
     19 OAG         -6.1270    -0.8990    -0.2570 oh         1 MRI      -0.528100
     20 CAU         -3.9470    -1.3960     0.5630 ca         1 MRI      -0.260000
     21 CAQ         -2.5800    -1.0900     0.6480 ca         1 MRI       0.216100
     22 OAE         -1.8060    -1.8870     1.4400 oh         1 MRI      -0.518100
     23 H1          -0.0170     3.5320    -0.3600 ho         1 MRI       0.486000
     24 H2           3.6390     2.4470    -0.3710 ho         1 MRI       0.521000
     25 H3           5.4820    -0.5750    -0.0950 ha         1 MRI       0.137000
     26 H4           5.3710    -2.7630     0.1440 ho         1 MRI       0.477000
     27 H5           1.7990    -2.7840     0.2490 ha         1 MRI       0.154000
     28 H6          -2.5860     1.7070    -1.3310 ha         1 MRI       0.126000
     29 H7          -4.9680     1.1630    -1.4390 ha         1 MRI       0.122000
     30 H8          -6.5670    -0.2250    -0.8170 ho         1 MRI       0.471000
     31 H9          -4.3530    -2.2590     1.0830 ha         1 MRI       0.133000
     32 H10         -2.3750    -2.5930     1.8120 ho         1 MRI       0.472000
@<TRIPOS>BOND
     1     1     2 1   
     2     1    23 1   
     3     2     3 1   
     4     2    14 2   
     5     3     4 2   
     6     3     5 1   
     7     5     6 ar  
     8     5    12 ar  
     9     6     7 1   
    10     6     8 ar  
    11     7    24 1   
    12     8     9 ar  
    13     8    25 1   
    14     9    10 1   
    15     9    11 ar  
    16    10    26 1   
    17    11    12 ar  
    18    11    27 1   
    19    12    13 1   
    20    13    14 1   
    21    14    15 1   
    22    15    16 ar  
    23    15    21 ar  
    24    16    17 ar  
    25    16    28 1   
    26    17    18 ar  
    27    17    29 1   
    28    18    19 1   
    29    18    20 ar  
    30    19    30 1   
    31    20    21 ar  
    32    20    31 1   
    33    21    22 1   
    34    22    32 1   
@<TRIPOS>SUBSTRUCTURE
     1 MRI         1 TEMP              0 ****  ****    0 ROOT
