@<TRIPOS>MOLECULE
MRK
   35    37     1     0     0
SMALL
No Charge or Current Charge


@<TRIPOS>ATOM
      1 S1           1.9450    -0.9440    -4.5130 ss         1 MRK      -0.099400
      2 C2           1.8600    -0.1010    -6.0310 cc         1 MRK      -0.270000
      3 C3           0.8030     0.7770    -6.0510 cd         1 MRK       0.305900
      4 N4           0.0470     0.8040    -4.8880 nd         1 MRK      -0.651000
      5 C5           0.5340    -0.0510    -4.0030 cc         1 MRK       0.576300
      6 N6          -0.0000    -0.2420    -2.7510 ns         1 MRK      -0.480400
      7 C7          -1.1070     0.3330    -2.1700 c          1 MRK       0.645700
      8 O8          -1.8440     1.1080    -2.7650 o          1 MRK      -0.561100
      9 C9          -2.5980     0.0570    -0.1220 ca         1 MRK       0.441000
     10 C10         -1.3220    -0.0240    -0.7180 ca         1 MRK      -0.287600
     11 C11         -0.2290    -0.4300     0.0860 ca         1 MRK       0.050000
     12 C12         -0.4160    -0.7520     1.4400 ca         1 MRK      -0.257000
     13 C13         -1.7010    -0.6780     1.9990 ca         1 MRK       0.292000
     14 F14         -1.9020    -1.0060     3.2950 f          1 MRK      -0.165000
     15 C15         -2.7840    -0.2730     1.2200 ca         1 MRK      -0.281000
     16 S16          0.9970    -1.2660     2.4310 ss         1 MRK      -0.101300
     17 N17          1.7810     0.3300     4.5290 na         1 MRK      -0.135500
     18 C18          1.0530     0.2480     3.3640 cc         1 MRK       0.460800
     19 N19          0.5100     1.4020     3.0130 nd         1 MRK      -0.636000
     20 C20          0.8780     2.2700     4.0220 cd         1 MRK       0.224900
     21 C21          1.6580     1.6350     4.9620 cc         1 MRK      -0.218000
     22 N23         -3.6980     0.4250    -0.8280 nv         1 MRK      -1.093000
     23 H2           2.5850    -0.3000    -6.8090 h4         1 MRK       0.163000
     24 H3           0.5340     1.4210    -6.8800 h4         1 MRK       0.045100
     25 HN6          0.4780    -0.9090    -2.1680 hn         1 MRK       0.333500
     26 H11          0.7820    -0.4740    -0.3140 ha         1 MRK       0.130000
     27 H15         -3.7710    -0.2240     1.6670 ha         1 MRK       0.134000
     28 H20          0.5670     3.3080     4.0150 h4         1 MRK       0.039100
     29 H21          2.1160     2.0100     5.8690 h4         1 MRK       0.156000
     30 H221         1.8550    -1.5790     5.4250 h1         1 MRK       0.058033
     31 H222         3.3280    -1.1050     4.5240 h1         1 MRK       0.058033
     32 H223         2.9810    -0.3760     6.1190 h1         1 MRK       0.058033
     33 H231        -4.5200     0.7340    -0.3140 hn         1 MRK       0.502500
     34 H232        -3.5290     0.8830    -1.7240 hn         1 MRK       0.502500
     35 C22          2.5320    -0.7490     5.1900 c3         1 MRK       0.057900
@<TRIPOS>BOND
     1     1     2 1   
     2     1     5 1   
     3     2     3 2   
     4     2    23 1   
     5     3     4 1   
     6     3    24 1   
     7     4     5 2   
     8     5     6 1   
     9     6     7 1   
    10     6    25 1   
    11     7     8 2   
    12     7    10 1   
    13     9    10 ar  
    14     9    15 ar  
    15     9    22 1   
    16    10    11 ar  
    17    11    12 ar  
    18    11    26 1   
    19    12    13 ar  
    20    12    16 1   
    21    13    14 1   
    22    13    15 ar  
    23    15    27 1   
    24    16    18 1   
    25    17    18 1   
    26    17    21 1   
    27    17    35 1   
    28    18    19 2   
    29    19    20 1   
    30    20    21 2   
    31    20    28 1   
    32    21    29 1   
    33    22    33 1   
    34    22    34 1   
    35    30    35 1   
    36    31    35 1   
    37    32    35 1   
@<TRIPOS>SUBSTRUCTURE
     1 MRK         1 TEMP              0 ****  ****    0 ROOT
