@<TRIPOS>MOLECULE
MRK
   35    37     1     0     0
SMALL
abcg2


@<TRIPOS>ATOM
      1 S1           1.4760    -1.1400    -4.9360 ss         1 MRK      -0.099400
      2 C2           1.3870    -0.1790    -6.3590 cc         1 MRK      -0.270000
      3 C3           0.5750     0.8810    -6.1390 cd         1 MRK       0.305900
      4 N4           0.0320     0.9770    -4.8880 nd         1 MRK      -0.651000
      5 C5           0.4150    -0.0100    -4.1500 cc         1 MRK       0.576300
      6 N6           0.0720    -0.2250    -2.8330 ns         1 MRK      -0.480400
      7 C7          -1.0430     0.2740    -2.2010 c          1 MRK       0.645700
      8 O8          -1.8990     0.9000    -2.7950 o          1 MRK      -0.561100
      9 C9          -2.3820    -0.1350    -0.1110 ca         1 MRK       0.441000
     10 C10         -1.1200    -0.0370    -0.7560 ca         1 MRK      -0.287600
     11 C11          0.0440    -0.2000    -0.0050 ca         1 MRK       0.050000
     12 C12          0.0250    -0.5060     1.3430 ca         1 MRK      -0.257000
     13 C13         -1.2280    -0.6480     1.9390 ca         1 MRK       0.292000
     14 F14         -1.2830    -0.9520     3.2360 f          1 MRK      -0.165000
     15 C15         -2.3990    -0.4640     1.2590 ca         1 MRK      -0.281000
     16 S16          1.5180    -0.7790     2.2350 ss         1 MRK      -0.101300
     17 N17          1.5670     0.4290     4.6760 na         1 MRK      -0.135500
     18 C18          1.5080     0.5890     3.3320 cc         1 MRK       0.460800
     19 N19          1.4620     1.8520     2.9910 nd         1 MRK      -0.636000
     20 C20          1.4820     2.5440     4.1630 cd         1 MRK       0.224900
     21 C21          1.5570     1.6790     5.2190 cc         1 MRK      -0.218000
     22 N23         -3.5530     0.0220    -0.7550 nv         1 MRK      -1.093000
     23 H2           1.9330    -0.4400    -7.2510 h4         1 MRK       0.163000
     24 H3           0.3470     1.6390    -6.8740 h4         1 MRK       0.045100
     25 HN6          0.6170    -0.9130    -2.3370 hn         1 MRK       0.333500
     26 H11          1.0110    -0.0630    -0.4720 ha         1 MRK       0.130000
     27 H15         -3.3440    -0.5700     1.7770 ha         1 MRK       0.134000
     28 H20          1.4480     3.6220     4.1900 h4         1 MRK       0.039100
     29 H21          1.6080     1.8390     6.2830 h4         1 MRK       0.156000
     30 H221         0.7600    -1.4380     5.1770 h1         1 MRK       0.058033
     31 H222         2.5300    -1.3720     5.1610 h1         1 MRK       0.058033
     32 H223         1.6290    -0.6020     6.4680 h1         1 MRK       0.058033
     33 H231        -4.4040     0.0340    -0.2210 hn         1 MRK       0.502500
     34 H232        -3.5710     0.4760    -1.6520 hn         1 MRK       0.502500
     35 C22          1.6250    -0.8200     5.4050 c3         1 MRK       0.057900
@<TRIPOS>BOND
     1     1     2 1   
     2     1     5 1   
     3     2     3 2   
     4     2    23 1   
     5     3     4 1   
     6     3    24 1   
     7     4     5 2   
     8     5     6 1   
     9     6     7 1   
    10     6    25 1   
    11     7     8 2   
    12     7    10 1   
    13     9    10 ar  
    14     9    15 ar  
    15     9    22 1   
    16    10    11 ar  
    17    11    12 ar  
    18    11    26 1   
    19    12    13 ar  
    20    12    16 1   
    21    13    14 1   
    22    13    15 ar  
    23    15    27 1   
    24    16    18 1   
    25    17    18 1   
    26    17    21 1   
    27    17    35 1   
    28    18    19 2   
    29    19    20 1   
    30    20    21 2   
    31    20    28 1   
    32    21    29 1   
    33    22    33 1   
    34    22    34 1   
    35    30    35 1   
    36    31    35 1   
    37    32    35 1   
@<TRIPOS>SUBSTRUCTURE
     1 MRK         1 TEMP              0 ****  ****    0 ROOT
