@<TRIPOS>MOLECULE
MRM
   21    21     1     0     0
SMALL
No Charge or Current Charge


@<TRIPOS>ATOM
      1 NB           0.0190     0.2490     3.5640 n8         1 MRM      -1.000200
      2 CM1         -0.0040    -0.2590     2.1800 c6         1 MRM       0.153500
      3 CM2         -1.2610     0.2320     1.4440 c6         1 MRM      -0.108900
      4 CM5          1.2350     0.2230     1.4100 c6         1 MRM      -0.108900
      5 CM3         -1.3070    -0.3030    -0.0060 c6         1 MRM       0.122500
      6 NM          -0.0450    -0.1460    -0.7950 n          1 MRM      -0.481800
      7 CM4          1.2380    -0.3120    -0.0410 c6         1 MRM       0.122500
      8 C           -0.0650    -0.2960    -2.1950 c          1 MRM       0.752000
      9 O           -1.1440    -0.3490    -2.7610 o          1 MRM      -0.741500
     10 OXT          0.9970    -0.3570    -2.7910 o          1 MRM      -0.741500
     11 HNB1         0.9190    -0.0030     3.9880 hn         1 MRM       0.376500
     12 HNB2         0.0470     1.2730     3.5300 hn         1 MRM       0.376500
     13 HM1         -0.0060    -1.3600     2.2230 h1         1 MRM       0.043700
     14 HM21        -2.1670    -0.0870     1.9780 hc         1 MRM       0.028700
     15 HM22        -1.2800     1.3310     1.4230 hc         1 MRM       0.028700
     16 HM51         1.2610     1.3210     1.3880 hc         1 MRM       0.028700
     17 HM52         2.1540    -0.1030     1.9180 hc         1 MRM       0.028700
     18 HM31        -1.5540    -1.3740     0.0250 h1         1 MRM       0.029950
     19 HM32        -2.1350     0.2020    -0.5250 h1         1 MRM       0.029950
     20 HM41         1.4770    -1.3850    -0.0170 h1         1 MRM       0.029950
     21 HM42         2.0540     0.1870    -0.5830 h1         1 MRM       0.029950
@<TRIPOS>BOND
     1     1     2 1   
     2     1    11 1   
     3     1    12 1   
     4     2     3 1   
     5     2     4 1   
     6     2    13 1   
     7     3     5 1   
     8     3    14 1   
     9     3    15 1   
    10     4     7 1   
    11     4    16 1   
    12     4    17 1   
    13     5     6 1   
    14     5    18 1   
    15     5    19 1   
    16     6     7 1   
    17     6     8 1   
    18     7    20 1   
    19     7    21 1   
    20     8     9 1   
    21     8    10 1   
@<TRIPOS>SUBSTRUCTURE
     1 MRM         1 TEMP              0 ****  ****    0 ROOT
