@<TRIPOS>MOLECULE
MRM
   21    21     1     0     0
SMALL
bcc


@<TRIPOS>ATOM
      1 NB          -0.0160     0.5500     3.4410 n8         1 MRM      -0.889800
      2 CM1          0.0140    -0.1690     2.1730 c6         1 MRM       0.153500
      3 CM2         -1.2440     0.1380     1.3700 c6         1 MRM      -0.108900
      4 CM5          1.2500     0.1060     1.3150 c6         1 MRM      -0.108900
      5 CM3         -1.2410    -0.5900     0.0280 c6         1 MRM       0.122500
      6 NM          -0.0430    -0.3170    -0.7220 n          1 MRM      -0.548800
      7 CM4          1.1770    -0.6250    -0.0230 c6         1 MRM       0.122500
      8 C           -0.0640     0.1820    -2.0330 c          1 MRM       1.029600
      9 O           -1.1860     0.4100    -2.5370 o          1 MRM      -0.846800
     10 OXT          1.0420     0.3580    -2.5920 o          1 MRM      -0.846800
     11 HNB1         0.8150     0.3230     3.9740 hn         1 MRM       0.321300
     12 HNB2         0.0500     1.5450     3.2550 hn         1 MRM       0.321300
     13 HM1          0.0040    -1.2400     2.4130 h1         1 MRM       0.043700
     14 HM21        -2.1300    -0.1500     1.9430 hc         1 MRM       0.028700
     15 HM22        -1.3090     1.2180     1.1950 hc         1 MRM       0.028700
     16 HM51         1.3300     1.1850     1.1360 hc         1 MRM       0.028700
     17 HM52         2.1530    -0.2000     1.8520 hc         1 MRM       0.028700
     18 HM31        -1.3350    -1.6700     0.2190 h1         1 MRM       0.029950
     19 HM32        -2.1040    -0.2980    -0.5640 h1         1 MRM       0.029950
     20 HM41         1.2470    -1.7080     0.1670 h1         1 MRM       0.029950
     21 HM42         2.0220    -0.3620    -0.6520 h1         1 MRM       0.029950
@<TRIPOS>BOND
     1     1     2 1   
     2     1    11 1   
     3     1    12 1   
     4     2     3 1   
     5     2     4 1   
     6     2    13 1   
     7     3     5 1   
     8     3    14 1   
     9     3    15 1   
    10     4     7 1   
    11     4    16 1   
    12     4    17 1   
    13     5     6 1   
    14     5    18 1   
    15     5    19 1   
    16     6     7 1   
    17     6     8 1   
    18     7    20 1   
    19     7    21 1   
    20     8     9 1   
    21     8    10 1   
@<TRIPOS>SUBSTRUCTURE
     1 MRM         1 TEMP              0 ****  ****    0 ROOT
