@<TRIPOS>MOLECULE
MRN
   39    40     1     0     0
SMALL
abcg2


@<TRIPOS>ATOM
      1 N           -0.8440    -0.7220     0.1720 ns         1 MRN      -0.146000
      2 O1          -1.0530     1.3850    -0.6670 o          1 MRN      -0.569100
      3 C2          -3.8860     1.1270     0.2620 ca         1 MRN      -0.017300
      4 O2           3.6340     0.8900    -0.1510 os         1 MRN      -0.351100
      5 C3          -3.0350     0.1390    -0.2570 ca         1 MRN      -0.156600
      6 C4          -3.5630    -1.0240    -0.8130 ca         1 MRN      -0.088000
      7 C5          -4.9340    -1.2260    -0.8700 ca         1 MRN      -0.121000
      8 C6          -5.7830    -0.2620    -0.3510 ca         1 MRN      -0.086000
      9 C7          -5.2580     0.8940     0.2110 ca         1 MRN      -0.122000
     10 C8          -1.5540     0.3470    -0.2750 c          1 MRN       0.620700
     11 C9           0.5410    -0.9010     0.2450 ca         1 MRN       0.016000
     12 C10          1.4680     0.0990    -0.0190 ca         1 MRN      -0.178000
     13 C11          2.8370    -0.1640     0.1000 ca         1 MRN       0.179100
     14 C12          3.2810    -1.4310     0.4690 ca         1 MRN      -0.231000
     15 C13          2.3390    -2.4180     0.7320 ca         1 MRN      -0.045000
     16 C14          0.9850    -2.1730     0.6270 ca         1 MRN      -0.210000
     17 C15          5.0570     0.7710    -0.0660 c3         1 MRN       0.180300
     18 C16          5.6220     0.1350    -1.3250 c3         1 MRN      -0.107100
     19 C17          5.5890     2.1740     0.1480 c3         1 MRN      -0.107100
     20 HN          -1.3850    -1.5020     0.5140 hn         1 MRN       0.154000
     21 H1          -2.9700     3.0730     0.1320 hc         1 MRN       0.052700
     22 H1A         -4.1860     2.9170     1.3940 hc         1 MRN       0.052700
     23 H1B         -2.5890     2.2120     1.6120 hc         1 MRN       0.052700
     24 H4          -2.9030    -1.7750    -1.2300 ha         1 MRN       0.115000
     25 H5          -5.3300    -2.1280    -1.3150 ha         1 MRN       0.117000
     26 H6          -6.8560    -0.4070    -0.3790 ha         1 MRN       0.116000
     27 H7          -5.9300     1.6360     0.6240 ha         1 MRN       0.116000
     28 H10          1.1570     1.0900    -0.3060 ha         1 MRN       0.160000
     29 H12          4.3320    -1.6680     0.5580 ha         1 MRN       0.118000
     30 H13          2.6780    -3.4030     1.0230 ha         1 MRN       0.109000
     31 H14          0.2700    -2.9600     0.8350 ha         1 MRN       0.110000
     32 H15          5.3210     0.1650     0.8080 h1         1 MRN       0.041700
     33 H16          6.7060     0.0490    -1.2420 hc         1 MRN       0.046533
     34 H16A         5.2270    -0.8660    -1.4990 hc         1 MRN       0.046533
     35 H16B         5.3990     0.7480    -2.2000 hc         1 MRN       0.046533
     36 H17          5.1760     2.6230     1.0520 hc         1 MRN       0.046533
     37 H17A         6.6730     2.1440     0.2570 hc         1 MRN       0.046533
     38 H17B         5.3560     2.8200    -0.6990 hc         1 MRN       0.046533
     39 C1          -3.3780     2.3970     0.8820 c3         1 MRN      -0.054800
@<TRIPOS>BOND
     1     1    10 1   
     2     1    11 1   
     3     1    20 1   
     4     2    10 2   
     5     3     5 ar  
     6     3     9 ar  
     7     3    39 1   
     8     4    13 1   
     9     4    17 1   
    10     5     6 ar  
    11     5    10 1   
    12     6     7 ar  
    13     6    24 1   
    14     7     8 ar  
    15     7    25 1   
    16     8     9 ar  
    17     8    26 1   
    18     9    27 1   
    19    11    12 ar  
    20    11    16 ar  
    21    12    13 ar  
    22    12    28 1   
    23    13    14 ar  
    24    14    15 ar  
    25    14    29 1   
    26    15    16 ar  
    27    15    30 1   
    28    16    31 1   
    29    17    18 1   
    30    17    19 1   
    31    17    32 1   
    32    18    33 1   
    33    18    34 1   
    34    18    35 1   
    35    19    36 1   
    36    19    37 1   
    37    19    38 1   
    38    21    39 1   
    39    22    39 1   
    40    23    39 1   
@<TRIPOS>SUBSTRUCTURE
     1 MRN         1 TEMP              0 ****  ****    0 ROOT
