@<TRIPOS>MOLECULE
MRN
   39    40     1     0     0
SMALL
No Charge or Current Charge


@<TRIPOS>ATOM
      1 N           -0.8110    -0.7320     0.1060 ns         1 MRN      -0.146000
      2 O1          -1.0840     1.5020    -0.3470 o          1 MRN      -0.569100
      3 C2          -4.0290     1.2240     0.1070 ca         1 MRN      -0.017300
      4 O2           3.8000     0.8710     0.1910 os         1 MRN      -0.351100
      5 C3          -3.0890     0.1720    -0.1180 ca         1 MRN      -0.156600
      6 C4          -3.5920    -1.1350    -0.3590 ca         1 MRN      -0.088000
      7 C5          -4.9710    -1.3920    -0.3800 ca         1 MRN      -0.121000
      8 C6          -5.8820    -0.3530    -0.1620 ca         1 MRN      -0.086000
      9 C7          -5.4110     0.9440     0.0790 ca         1 MRN      -0.122000
     10 C8          -1.5790     0.4050    -0.1180 c          1 MRN       0.620700
     11 C9           0.5930    -0.9470     0.1770 ca         1 MRN       0.016000
     12 C10          1.5510     0.0890     0.1460 ca         1 MRN      -0.178000
     13 C11          2.9240    -0.1970     0.2200 ca         1 MRN       0.179100
     14 C12          3.3510    -1.5360     0.3440 ca         1 MRN      -0.231000
     15 C13          2.4060    -2.5720     0.3810 ca         1 MRN      -0.045000
     16 C14          1.0370    -2.2760     0.2980 ca         1 MRN      -0.210000
     17 C15          5.2260     0.7280     0.0500 c3         1 MRN       0.180300
     18 C16          5.5390     0.3220    -1.4080 c3         1 MRN      -0.107100
     19 C17          5.8440     2.0900     0.4180 c3         1 MRN      -0.107100
     20 HN          -1.3540    -1.5690     0.2640 hn         1 MRN       0.154000
     21 H1          -3.1780     3.1460    -0.4660 hc         1 MRN       0.052700
     22 H1A         -4.4610     3.2740     0.7360 hc         1 MRN       0.052700
     23 H1B         -2.8730     2.6960     1.2270 hc         1 MRN       0.052700
     24 H4          -2.9230    -1.9700    -0.5560 ha         1 MRN       0.115000
     25 H5          -5.3340    -2.4000    -0.5720 ha         1 MRN       0.117000
     26 H6          -6.9520    -0.5520    -0.1800 ha         1 MRN       0.116000
     27 H7          -6.1330     1.7390     0.2520 ha         1 MRN       0.116000
     28 H10          1.2580     1.1290     0.0680 ha         1 MRN       0.160000
     29 H12          4.4040    -1.7910     0.4190 ha         1 MRN       0.118000
     30 H13          2.7350    -3.6050     0.4770 ha         1 MRN       0.109000
     31 H14          0.3150    -3.0900     0.3280 ha         1 MRN       0.110000
     32 H15          5.6230    -0.0220     0.7450 h1         1 MRN       0.041700
     33 H16          6.6230     0.2680    -1.5640 hc         1 MRN       0.046533
     34 H16A         5.1170    -0.6600    -1.6480 hc         1 MRN       0.046533
     35 H16B         5.1290     1.0560    -2.1120 hc         1 MRN       0.046533
     36 H17          5.5970     2.3570     1.4520 hc         1 MRN       0.046533
     37 H17A         6.9360     2.0530     0.3280 hc         1 MRN       0.046533
     38 H17B         5.4710     2.8810    -0.2440 hc         1 MRN       0.046533
     39 C1          -3.6100     2.6610     0.4160 c3         1 MRN      -0.054800
@<TRIPOS>BOND
     1     1    10 1   
     2     1    11 1   
     3     1    20 1   
     4     2    10 2   
     5     3     5 ar  
     6     3     9 ar  
     7     3    39 1   
     8     4    13 1   
     9     4    17 1   
    10     5     6 ar  
    11     5    10 1   
    12     6     7 ar  
    13     6    24 1   
    14     7     8 ar  
    15     7    25 1   
    16     8     9 ar  
    17     8    26 1   
    18     9    27 1   
    19    11    12 ar  
    20    11    16 ar  
    21    12    13 ar  
    22    12    28 1   
    23    13    14 ar  
    24    14    15 ar  
    25    14    29 1   
    26    15    16 ar  
    27    15    30 1   
    28    16    31 1   
    29    17    18 1   
    30    17    19 1   
    31    17    32 1   
    32    18    33 1   
    33    18    34 1   
    34    18    35 1   
    35    19    36 1   
    36    19    37 1   
    37    19    38 1   
    38    21    39 1   
    39    22    39 1   
    40    23    39 1   
@<TRIPOS>SUBSTRUCTURE
     1 MRN         1 TEMP              0 ****  ****    0 ROOT
