@<TRIPOS>MOLECULE
MRO
   30    31     1     0     0
SMALL
abcg2


@<TRIPOS>ATOM
      1 OAA          0.1700     2.4860    -0.0050 o          1 MRO      -0.688500
      2 CAN          1.3830     2.2470    -0.0090 c          1 MRO       0.718200
      3 OAD          2.3270     3.0540    -0.0870 o          1 MRO      -0.688500
      4 CAQ          1.8230     0.7720     0.0780 cc         1 MRO       0.026400
      5 NAL          3.1630     0.6290    -0.1640 ns         1 MRO      -0.494600
      6 CAR          3.8390    -0.5470    -0.1880 c          1 MRO       0.606000
      7 OAB          5.0320    -0.6400    -0.4080 o          1 MRO      -0.610000
      8 NAM          3.0390    -1.6320     0.0600 ns         1 MRO      -0.471500
      9 CAS          1.6840    -1.6200     0.3330 c          1 MRO       0.578200
     10 OAC          1.1020    -2.6740     0.5330 o          1 MRO      -0.588000
     11 CAP          1.0500    -0.3070     0.3520 cd         1 MRO      -0.292400
     12 CAK         -0.4230    -0.2820     0.6290 c3         1 MRO       0.018800
     13 CAJ         -1.2550    -0.4590    -0.6490 c3         1 MRO      -0.033100
     14 CAO         -2.7280    -0.3460    -0.3780 ca         1 MRO      -0.056300
     15 CAH         -3.5420    -1.4730    -0.2990 ca         1 MRO      -0.107500
     16 CAF         -4.8980    -1.3560    -0.0190 ca         1 MRO      -0.123000
     17 CAE         -5.4610    -0.1050     0.1890 ca         1 MRO      -0.132000
     18 CAG         -4.6590     1.0280     0.1150 ca         1 MRO      -0.123000
     19 CAI         -3.3050     0.9060    -0.1640 ca         1 MRO      -0.107500
     20 H2           3.4910    -2.5370     0.0390 hn         1 MRO       0.318500
     21 H4          -0.6660    -1.0870     1.3260 hc         1 MRO       0.057200
     22 H5          -0.6980     0.6540     1.1050 hc         1 MRO       0.057200
     23 H6          -0.9530     0.3050    -1.3670 hc         1 MRO       0.052200
     24 H7          -1.0310    -1.4290    -1.0980 hc         1 MRO       0.052200
     25 H8          -3.1120    -2.4550    -0.4650 ha         1 MRO       0.126500
     26 H9          -5.5150    -2.2440     0.0360 ha         1 MRO       0.098500
     27 H10         -6.5190    -0.0110     0.4020 ha         1 MRO       0.094000
     28 H11         -5.0890     2.0090     0.2750 ha         1 MRO       0.098500
     29 H12         -2.6820     1.7910    -0.2200 ha         1 MRO       0.126500
     30 H13          3.6680     1.4930    -0.3250 hn         1 MRO       0.488000
@<TRIPOS>BOND
     1     1     2 1   
     2     2     3 1   
     3     2     4 1   
     4     4     5 1   
     5     4    11 2   
     6     5     6 1   
     7     5    30 1   
     8     6     7 2   
     9     6     8 1   
    10     8     9 1   
    11     8    20 1   
    12     9    10 2   
    13     9    11 1   
    14    11    12 1   
    15    12    13 1   
    16    12    21 1   
    17    12    22 1   
    18    13    14 1   
    19    13    23 1   
    20    13    24 1   
    21    14    15 ar  
    22    14    19 ar  
    23    15    16 ar  
    24    15    25 1   
    25    16    17 ar  
    26    16    26 1   
    27    17    18 ar  
    28    17    27 1   
    29    18    19 ar  
    30    18    28 1   
    31    19    29 1   
@<TRIPOS>SUBSTRUCTURE
     1 MRO         1 TEMP              0 ****  ****    0 ROOT
