@<TRIPOS>MOLECULE
MRO
   30    31     1     0     0
SMALL
No Charge or Current Charge


@<TRIPOS>ATOM
      1 OAA          0.3120     2.6140     0.1210 o          1 MRO      -0.688500
      2 CAN          1.4790     2.2770    -0.0280 c          1 MRO       0.718200
      3 OAD          2.3570     3.0990    -0.2670 o          1 MRO      -0.688500
      4 CAQ          1.8940     0.8150     0.0620 cc         1 MRO       0.026400
      5 NAL          3.2470     0.5690    -0.1630 ns         1 MRO      -0.494600
      6 CAR          3.8590    -0.6390    -0.1620 c          1 MRO       0.606000
      7 OAB          5.0490    -0.7740    -0.3690 o          1 MRO      -0.610000
      8 NAM          3.0300    -1.6780     0.0870 ns         1 MRO      -0.471500
      9 CAS          1.6920    -1.6510     0.3340 c          1 MRO       0.578200
     10 OAC          1.0840    -2.6910     0.5350 o          1 MRO      -0.588000
     11 CAP          1.0780    -0.2870     0.3290 cd         1 MRO      -0.292400
     12 CAK         -0.4170    -0.2550     0.6200 c3         1 MRO       0.018800
     13 CAJ         -1.2690    -0.3140    -0.6650 c3         1 MRO      -0.033100
     14 CAO         -2.7630    -0.2740    -0.3690 ca         1 MRO      -0.056300
     15 CAH         -3.5020    -1.4700    -0.2710 ca         1 MRO      -0.107500
     16 CAF         -4.8800    -1.4300     0.0070 ca         1 MRO      -0.123000
     17 CAE         -5.5250    -0.1960     0.1900 ca         1 MRO      -0.132000
     18 CAG         -4.7930     0.9990     0.0950 ca         1 MRO      -0.123000
     19 CAI         -3.4150     0.9600    -0.1830 ca         1 MRO      -0.107500
     20 H2           3.4590    -2.5890     0.0890 hn         1 MRO       0.318500
     21 H4          -0.7100    -1.0920     1.2660 hc         1 MRO       0.057200
     22 H5          -0.6880     0.6320     1.2010 hc         1 MRO       0.057200
     23 H6          -0.9950     0.5240    -1.3180 hc         1 MRO       0.052200
     24 H7          -1.0170    -1.2250    -1.2200 hc         1 MRO       0.052200
     25 H8          -3.0080    -2.4300    -0.4080 ha         1 MRO       0.126500
     26 H9          -5.4450    -2.3570     0.0810 ha         1 MRO       0.098500
     27 H10         -6.5910    -0.1660     0.4050 ha         1 MRO       0.094000
     28 H11         -5.2920     1.9550     0.2380 ha         1 MRO       0.098500
     29 H12         -2.8530     1.8890    -0.2520 ha         1 MRO       0.126500
     30 H13          3.8600     1.3570    -0.3560 hn         1 MRO       0.488000
@<TRIPOS>BOND
     1     1     2 1   
     2     2     3 1   
     3     2     4 1   
     4     4     5 1   
     5     4    11 2   
     6     5     6 1   
     7     5    30 1   
     8     6     7 2   
     9     6     8 1   
    10     8     9 1   
    11     8    20 1   
    12     9    10 2   
    13     9    11 1   
    14    11    12 1   
    15    12    13 1   
    16    12    21 1   
    17    12    22 1   
    18    13    14 1   
    19    13    23 1   
    20    13    24 1   
    21    14    15 ar  
    22    14    19 ar  
    23    15    16 ar  
    24    15    25 1   
    25    16    17 ar  
    26    16    26 1   
    27    17    18 ar  
    28    17    27 1   
    29    18    19 ar  
    30    18    28 1   
    31    19    29 1   
@<TRIPOS>SUBSTRUCTURE
     1 MRO         1 TEMP              0 ****  ****    0 ROOT
