@<TRIPOS>MOLECULE
MRP
   26    26     1     0     0
SMALL
No Charge or Current Charge


@<TRIPOS>ATOM
      1 C1          -9.4580    -2.8740     3.2610 c6         1 MRP       0.353300
      2 C2          -9.0530    -4.3740     3.5200 c6         1 MRP       0.125300
      3 C3          -9.2590    -4.6950     5.0410 c6         1 MRP       0.140300
      4 C4         -10.7240    -4.3670     5.4600 c6         1 MRP       0.149300
      5 C5         -11.0520    -2.8790     5.1160 c6         1 MRP       0.177300
      6 C6         -12.5350    -2.5140     5.3740 c3         1 MRP      -0.082100
      7 O1          -8.6060    -1.9600     3.9450 oh         1 MRP      -0.681000
      8 O2          -9.8180    -5.2970     2.6980 oh         1 MRP      -0.691000
      9 O3          -8.9480    -6.0700     5.4010 os         1 MRP      -0.450000
     10 O4         -10.9170    -4.6670     6.8590 oh         1 MRP      -0.721000
     11 O5         -10.8040    -2.6190     3.7080 os         1 MRP      -0.476000
     12 H1          -9.3990    -2.6760     2.1790 h2         1 MRP       0.059700
     13 H2          -7.9830    -4.4730     3.2860 h1         1 MRP       0.048700
     14 H3          -8.5890    -4.0410     5.6190 h1         1 MRP       0.063700
     15 H4         -11.3920    -5.0010     4.8570 h1         1 MRP       0.068700
     16 H5         -10.4240    -2.2130     5.7260 h1         1 MRP       0.051700
     17 H61        -13.2100    -3.1580     4.7970 hc         1 MRP       0.047700
     18 H62        -12.7910    -2.6240     6.4340 hc         1 MRP       0.047700
     19 H63        -12.7380    -1.4740     5.0930 hc         1 MRP       0.047700
     20 H71         -7.3370    -6.5170     4.1290 h1         1 MRP       0.030367
     21 H72         -6.8860    -5.8650     5.7250 h1         1 MRP       0.030367
     22 H73         -7.4690    -7.5370     5.5740 h1         1 MRP       0.030367
     23 HO1         -8.9890    -1.0750     3.7660 ho         1 MRP       0.460000
     24 HO2         -9.5490    -5.1500     1.7620 ho         1 MRP       0.501000
     25 HO4        -10.4270    -5.5110     7.0070 ho         1 MRP       0.520000
     26 C7          -7.5950    -6.5140     5.1950 c3         1 MRP       0.147900
@<TRIPOS>BOND
     1     1     2 1   
     2     1     7 1   
     3     1    11 1   
     4     1    12 1   
     5     2     3 1   
     6     2     8 1   
     7     2    13 1   
     8     3     4 1   
     9     3     9 1   
    10     3    14 1   
    11     4     5 1   
    12     4    10 1   
    13     4    15 1   
    14     5     6 1   
    15     5    11 1   
    16     5    16 1   
    17     6    17 1   
    18     6    18 1   
    19     6    19 1   
    20     7    23 1   
    21     8    24 1   
    22     9    26 1   
    23    10    25 1   
    24    20    26 1   
    25    21    26 1   
    26    22    26 1   
@<TRIPOS>SUBSTRUCTURE
     1 MRP         1 TEMP              0 ****  ****    0 ROOT
