@<TRIPOS>MOLECULE
MRP
   26    26     1     0     0
SMALL
bcc


@<TRIPOS>ATOM
      1 C1          -9.4940    -2.8790     3.2770 c6         1 MRP       0.306900
      2 C2          -9.0750    -4.3370     3.4910 c6         1 MRP       0.102100
      3 C3          -9.2620    -4.6980     4.9630 c6         1 MRP       0.117100
      4 C4         -10.6880    -4.3950     5.4130 c6         1 MRP       0.126100
      5 C5         -11.0260    -2.9340     5.1120 c6         1 MRP       0.154100
      6 C6         -12.4760    -2.6020     5.4010 c3         1 MRP      -0.082100
      7 O1          -8.5450    -2.0730     3.9010 oh         1 MRP      -0.618800
      8 O2          -9.8710    -5.2010     2.7190 oh         1 MRP      -0.568800
      9 O3          -9.0140    -6.0550     5.2360 os         1 MRP      -0.403600
     10 O4         -10.8330    -4.5860     6.8000 oh         1 MRP      -0.598800
     11 O5         -10.7960    -2.6500     3.7390 os         1 MRP      -0.429600
     12 H1          -9.5440    -2.6670     2.2010 h2         1 MRP       0.059700
     13 H2          -8.0150    -4.4250     3.2160 h1         1 MRP       0.048700
     14 H3          -8.5790    -4.0670     5.5530 h1         1 MRP       0.063700
     15 H4         -11.3860    -5.0360     4.8540 h1         1 MRP       0.068700
     16 H5         -10.3840    -2.3010     5.7400 h1         1 MRP       0.051700
     17 H61        -13.1480    -3.2260     4.8090 hc         1 MRP       0.047700
     18 H62        -12.7030    -2.7620     6.4540 hc         1 MRP       0.047700
     19 H63        -12.6850    -1.5570     5.1730 hc         1 MRP       0.047700
     20 H71         -7.1940    -6.3650     4.2550 h1         1 MRP       0.030367
     21 H72         -7.0710    -5.7660     5.9190 h1         1 MRP       0.030367
     22 H73         -7.5820    -7.4350     5.6070 h1         1 MRP       0.030367
     23 HO1         -8.7030    -1.1530     3.6610 ho         1 MRP       0.421000
     24 HO2         -9.6500    -5.0730     1.7910 ho         1 MRP       0.402000
     25 HO4        -10.5750    -5.4920     7.0000 ho         1 MRP       0.421000
     26 C7          -7.6530    -6.4090     5.2480 c3         1 MRP       0.124700
@<TRIPOS>BOND
     1     1     2 1   
     2     1     7 1   
     3     1    11 1   
     4     1    12 1   
     5     2     3 1   
     6     2     8 1   
     7     2    13 1   
     8     3     4 1   
     9     3     9 1   
    10     3    14 1   
    11     4     5 1   
    12     4    10 1   
    13     4    15 1   
    14     5     6 1   
    15     5    11 1   
    16     5    16 1   
    17     6    17 1   
    18     6    18 1   
    19     6    19 1   
    20     7    23 1   
    21     8    24 1   
    22     9    26 1   
    23    10    25 1   
    24    20    26 1   
    25    21    26 1   
    26    22    26 1   
@<TRIPOS>SUBSTRUCTURE
     1 MRP         1 TEMP              0 ****  ****    0 ROOT
