@<TRIPOS>MOLECULE
MRQ
   82    85     1     0     0
SMALL
No Charge or Current Charge


@<TRIPOS>ATOM
      1 N1          17.2400    -6.0800     2.0270 n2         1 MRQ      -0.903100
      2 C1          16.0550    -6.2590     2.3400 c2         1 MRQ       0.788100
      3 N2          15.1340    -5.3520     2.2510 nv         1 MRQ      -1.024200
      4 N3          15.4180    -7.3910     2.1040 nu         1 MRQ      -0.947400
      5 C2          16.0410    -8.7260     2.0320 c3         1 MRQ       0.204800
      6 C3          16.5270    -9.1870     3.4260 c3         1 MRQ      -0.112400
      7 C10          9.3310   -12.3100     4.8540 cc         1 MRQ      -0.152000
      8 C11          9.8400   -13.4640     4.3310 cd         1 MRQ      -0.178000
      9 C12         12.1080   -14.4720     3.7900 c          1 MRQ       0.582900
     10 C13         11.4180   -15.7270     3.1660 c3         1 MRQ       0.094800
     11 C15         10.1640   -17.8950     1.2900 cc         1 MRQ       0.081300
     12 C16          9.7840   -18.3740     0.0660 cd         1 MRQ      -0.164000
     13 C17          8.4060   -18.1120    -0.0720 cd         1 MRQ      -0.186000
     14 O45          9.0650   -17.3670     1.9360 os         1 MRQ      -0.256000
     15 C22         12.5300   -15.8790     0.9420 c3         1 MRQ       0.213100
     16 C23         13.1290   -16.7490    -0.1710 ca         1 MRQ      -0.077300
     17 C24         12.3860   -16.9220    -1.3590 ca         1 MRQ      -0.104000
     18 C25         12.8770   -17.7170    -2.4070 ca         1 MRQ      -0.111000
     19 C26         14.1240   -18.3440    -2.2820 ca         1 MRQ      -0.103000
     20 C27         14.8800   -18.1690    -1.1130 ca         1 MRQ      -0.101000
     21 C28         14.3980   -17.3740    -0.0530 ca         1 MRQ      -0.051300
     22 C29         15.2830   -17.2050     1.1770 c3         1 MRQ       0.096900
     23 C30         17.6510   -16.1680     2.3710 c3         1 MRQ       0.037600
     24 C31         16.9160   -15.6200     3.6270 c3         1 MRQ       0.045700
     25 C32         17.7880   -15.7190     4.9190 c          1 MRQ       0.596100
     26 C33         17.0630   -13.1370     3.0160 c          1 MRQ       0.604100
     27 C4          17.2070   -10.5810     3.4270 c3         1 MRQ      -0.081400
     28 C5          16.2800   -11.7860     3.0900 c3         1 MRQ       0.030700
     29 C6          13.8760   -11.4810     3.8830 c          1 MRQ       0.614100
     30 C7          12.9730   -11.6650     5.1080 c3         1 MRQ      -0.090100
     31 C8          11.5770   -12.1960     4.8510 cd         1 MRQ      -0.112300
     32 C9          10.4390   -11.5030     5.1860 cc         1 MRQ      -0.160000
     33 N4          15.1790   -11.8830     4.0790 ns         1 MRQ      -0.518900
     34 N5          11.2430   -13.4470     4.2890 n          1 MRQ       0.024200
     35 N6          12.1690   -16.6010     2.1980 n3         1 MRQ      -0.718600
     36 N7          18.3270   -16.9310     5.1990 nt         1 MRQ      -0.608000
     37 N8          16.3670   -14.2500     3.4570 ns         1 MRQ      -0.478900
     38 O1          13.4910   -10.9880     2.8330 o          1 MRQ      -0.588100
     39 O4          18.0000   -14.7850     5.6780 o          1 MRQ      -0.587100
     40 S1          16.6350   -15.9930     0.8280 ss         1 MRQ      -0.400000
     41 C20          7.9940   -17.4960     1.0780 cc         1 MRQ       0.125900
     42 H1          17.6250    -7.0160     1.8840 hn         1 MRQ       0.386400
     43 H3          14.5040    -5.6020     1.5060 hn         1 MRQ       0.457500
     44 H4          15.5610    -4.4490     2.1040 hn         1 MRQ       0.457500
     45 H5          14.4880    -7.3720     2.5050 hn         1 MRQ       0.470000
     46 H6          15.3060    -9.4480     1.6530 h1         1 MRQ       0.062700
     47 H7          16.8840    -8.7250     1.3260 h1         1 MRQ       0.062700
     48 H8          17.2520    -8.4580     3.8090 hc         1 MRQ       0.046200
     49 H9          15.6860    -9.1830     4.1290 hc         1 MRQ       0.046200
     50 H10          8.2860   -12.0550     5.0070 ha         1 MRQ       0.138000
     51 H11          9.3000   -14.3370     3.9830 h4         1 MRQ       0.150000
     52 H12         10.5210   -15.3640     2.6520 h1         1 MRQ       0.069700
     53 H13         11.0710   -16.3230     4.0200 h1         1 MRQ       0.069700
     54 H14         11.3630   -18.4200     2.9610 h1         1 MRQ       0.074700
     55 H15         12.1690   -18.5920     1.4190 h1         1 MRQ       0.074700
     56 H16         10.4270   -18.8660    -0.6570 ha         1 MRQ       0.146000
     57 H17          7.7790   -18.3550    -0.9240 ha         1 MRQ       0.145000
     58 H19         13.2460   -15.0770     1.1670 h1         1 MRQ       0.054700
     59 H20         11.6350   -15.3840     0.5400 h1         1 MRQ       0.054700
     60 H21         11.4170   -16.4420    -1.4710 ha         1 MRQ       0.116000
     61 H22         12.2910   -17.8460    -3.3140 ha         1 MRQ       0.115000
     62 H23         14.5080   -18.9600    -3.0930 ha         1 MRQ       0.115000
     63 H24         15.8520   -18.6500    -1.0310 ha         1 MRQ       0.114000
     64 H25         14.7070   -16.8650     2.0440 h1         1 MRQ       0.076200
     65 H26         15.7290   -18.1740     1.4360 h1         1 MRQ       0.076200
     66 H27         17.8910   -17.2300     2.5100 h1         1 MRQ       0.083200
     67 H28         18.5990   -15.6350     2.2300 h1         1 MRQ       0.083200
     68 H29         16.0580   -16.2780     3.8110 h1         1 MRQ       0.060700
     69 H30         18.0410   -10.5570     2.7150 hc         1 MRQ       0.067200
     70 H31         17.6540   -10.7510     4.4150 hc         1 MRQ       0.067200
     71 H32         15.8490   -11.6460     2.0900 h1         1 MRQ       0.104700
     72 H33         13.4870   -12.2900     5.8480 hc         1 MRQ       0.073200
     73 H34         12.9100   -10.6800     5.5850 hc         1 MRQ       0.073200
     74 H35         10.3820   -10.5180     5.6400 ha         1 MRQ       0.135000
     75 H36         15.4020   -12.2360     5.0040 hn         1 MRQ       0.315500
     76 H38         18.8930   -17.0350     6.0280 hn         1 MRQ       0.312500
     77 H39         18.1470   -17.7240     4.6020 hn         1 MRQ       0.312500
     78 H40         15.3860   -14.0990     3.6810 hn         1 MRQ       0.343500
     79 H2           7.0310   -17.1260     1.4030 h4         1 MRQ       0.053100
     80 O5          18.2390   -13.1970     2.6800 o          1 MRQ      -0.601100
     81 O2          13.3350   -14.3830     3.8510 o          1 MRQ      -0.537100
     82 C14         11.5080   -17.9270     1.9900 c3         1 MRQ       0.150500
@<TRIPOS>BOND
     1     1     2 2   
     2     1    42 1   
     3     2     3 1   
     4     2     4 1   
     5     3    43 1   
     6     3    44 1   
     7     4     5 1   
     8     4    45 1   
     9     5     6 1   
    10     5    46 1   
    11     5    47 1   
    12     6    27 1   
    13     6    48 1   
    14     6    49 1   
    15     7     8 2   
    16     7    32 1   
    17     7    50 1   
    18     8    34 1   
    19     8    51 1   
    20     9    10 1   
    21     9    34 1   
    22     9    81 2   
    23    10    35 1   
    24    10    52 1   
    25    10    53 1   
    26    11    12 2   
    27    11    14 1   
    28    11    82 1   
    29    12    13 1   
    30    12    56 1   
    31    13    41 2   
    32    13    57 1   
    33    14    41 1   
    34    15    16 1   
    35    15    35 1   
    36    15    58 1   
    37    15    59 1   
    38    16    17 ar  
    39    16    21 ar  
    40    17    18 ar  
    41    17    60 1   
    42    18    19 ar  
    43    18    61 1   
    44    19    20 ar  
    45    19    62 1   
    46    20    21 ar  
    47    20    63 1   
    48    21    22 1   
    49    22    40 1   
    50    22    64 1   
    51    22    65 1   
    52    23    24 1   
    53    23    40 1   
    54    23    66 1   
    55    23    67 1   
    56    24    25 1   
    57    24    37 1   
    58    24    68 1   
    59    25    36 1   
    60    25    39 2   
    61    26    28 1   
    62    26    37 1   
    63    26    80 2   
    64    27    28 1   
    65    27    69 1   
    66    27    70 1   
    67    28    33 1   
    68    28    71 1   
    69    29    30 1   
    70    29    33 1   
    71    29    38 2   
    72    30    31 1   
    73    30    72 1   
    74    30    73 1   
    75    31    32 2   
    76    31    34 1   
    77    32    74 1   
    78    33    75 1   
    79    35    82 1   
    80    36    76 1   
    81    36    77 1   
    82    37    78 1   
    83    41    79 1   
    84    54    82 1   
    85    55    82 1   
@<TRIPOS>SUBSTRUCTURE
     1 MRQ         1 TEMP              0 ****  ****    0 ROOT
