@<TRIPOS>MOLECULE
MRQ
   82    85     1     0     0
SMALL
bcc


@<TRIPOS>ATOM
      1 N1          17.4660    -6.0720     2.7260 n2         1 MRQ      -0.903100
      2 C1          16.2000    -6.1970     2.8910 c2         1 MRQ       0.788100
      3 N2          15.4630    -5.1170     3.3300 nv         1 MRQ      -0.913800
      4 N3          15.4410    -7.3190     2.6820 nu         1 MRQ      -0.892200
      5 C2          16.0280    -8.6250     2.4940 c3         1 MRQ       0.204800
      6 C3          16.5790    -9.2440     3.7780 c3         1 MRQ      -0.112400
      7 C10          9.3720   -11.9170     4.3120 cc         1 MRQ      -0.170000
      8 C11          9.7250   -13.0680     3.6910 cd         1 MRQ      -0.145300
      9 C12         11.8290   -14.3120     3.3090 c          1 MRQ       0.582900
     10 C13         10.9920   -15.3730     2.6150 c3         1 MRQ       0.094800
     11 C15          9.9000   -17.9590     1.3130 cc         1 MRQ       0.191000
     12 C16          9.5850   -18.8350     0.3280 cd         1 MRQ      -0.247300
     13 C17          8.2130   -18.6050    -0.0010 cd         1 MRQ      -0.269300
     14 O45          8.8110   -17.2100     1.6130 os         1 MRQ      -0.344800
     15 C22         12.2190   -16.0230     0.6640 c3         1 MRQ       0.213100
     16 C23         12.9540   -17.1110    -0.0800 ca         1 MRQ      -0.077300
     17 C24         12.3490   -17.6910    -1.1940 ca         1 MRQ      -0.122000
     18 C25         12.9640   -18.7090    -1.9060 ca         1 MRQ      -0.129000
     19 C26         14.2110   -19.1680    -1.5040 ca         1 MRQ      -0.121000
     20 C27         14.8300   -18.5870    -0.4100 ca         1 MRQ      -0.119000
     21 C28         14.2190   -17.5610     0.3090 ca         1 MRQ      -0.051300
     22 C29         14.9800   -16.9320     1.4380 c3         1 MRQ       0.049000
     23 C30         17.5500   -15.9090     1.9190 c3         1 MRQ      -0.010300
     24 C31         17.2070   -15.3990     3.3250 c3         1 MRQ       0.045700
     25 C32         18.4180   -15.3960     4.2770 c          1 MRQ       0.663100
     26 C33         17.1480   -12.9970     2.8970 c          1 MRQ       0.671100
     27 C4          17.2780   -10.5810     3.5690 c3         1 MRQ      -0.081400
     28 C5          16.3480   -11.7080     3.1050 c3         1 MRQ       0.030700
     29 C6          13.9510   -11.7210     3.7280 c          1 MRQ       0.681100
     30 C7          13.0300   -11.9590     4.9090 c3         1 MRQ      -0.090100
     31 C8          11.6090   -12.1520     4.5300 cd         1 MRQ      -0.061600
     32 C9          10.5630   -11.3390     4.8400 cc         1 MRQ      -0.178000
     33 N4          15.2550   -11.9050     4.0240 ns         1 MRQ      -0.585900
     34 N5          11.1000   -13.2320     3.8110 n          1 MRQ      -0.077200
     35 N6          11.7750   -16.4150     2.0000 n3         1 MRQ      -0.718600
     36 N7          19.1950   -16.4880     4.2150 nt         1 MRQ      -0.675000
     37 N8          16.5660   -14.1190     3.3370 ns         1 MRQ      -0.545900
     38 O1          13.5460   -11.3720     2.6340 o          1 MRQ      -0.588100
     39 O4          18.6230   -14.4770     5.0480 o          1 MRQ      -0.587100
     40 S1          16.1960   -15.7610     0.7340 ss         1 MRQ      -0.304200
     41 C20          7.8010   -17.6050     0.8100 cc         1 MRQ       0.235600
     42 H1          17.9050    -6.9500     2.4820 hn         1 MRQ       0.386400
     43 H3          14.5120    -5.0620     3.0010 hn         1 MRQ       0.402300
     44 H4          15.9460    -4.2380     3.2340 hn         1 MRQ       0.402300
     45 H5          14.5300    -7.3180     3.1130 hn         1 MRQ       0.414800
     46 H6          15.2550    -9.2610     2.0610 h1         1 MRQ       0.062700
     47 H7          16.8170    -8.5550     1.7390 h1         1 MRQ       0.062700
     48 H8          17.2980    -8.5550     4.2270 hc         1 MRQ       0.046200
     49 H9          15.7680    -9.3490     4.5060 hc         1 MRQ       0.046200
     50 H10          8.3700   -11.5240     4.3870 ha         1 MRQ       0.156000
     51 H11          9.1040   -13.7820     3.1810 h4         1 MRQ       0.168000
     52 H12         10.3200   -14.8840     1.8980 h1         1 MRQ       0.069700
     53 H13         10.3480   -15.8040     3.3860 h1         1 MRQ       0.069700
     54 H14         10.9670   -17.9220     3.1560 h1         1 MRQ       0.074700
     55 H15         11.8740   -18.4820     1.7760 h1         1 MRQ       0.074700
     56 H16         10.2500   -19.5550    -0.1200 ha         1 MRQ       0.164000
     57 H17          7.6210   -19.1150    -0.7430 ha         1 MRQ       0.163000
     58 H19         12.8660   -15.1490     0.7730 h1         1 MRQ       0.054700
     59 H20         11.3700   -15.6980     0.0440 h1         1 MRQ       0.054700
     60 H21         11.3710   -17.3440    -1.5010 ha         1 MRQ       0.134000
     61 H22         12.4690   -19.1430    -2.7650 ha         1 MRQ       0.133000
     62 H23         14.7010   -19.9670    -2.0440 ha         1 MRQ       0.133000
     63 H24         15.8130   -18.9290    -0.1080 ha         1 MRQ       0.132000
     64 H25         14.3240   -16.4180     2.1390 h1         1 MRQ       0.076200
     65 H26         15.5350   -17.6940     1.9880 h1         1 MRQ       0.076200
     66 H27         17.8470   -16.9580     1.9590 h1         1 MRQ       0.083200
     67 H28         18.3800   -15.3500     1.4920 h1         1 MRQ       0.083200
     68 H29         16.4900   -16.0970     3.7680 h1         1 MRQ       0.060700
     69 H30         18.0790   -10.4690     2.8380 hc         1 MRQ       0.067200
     70 H31         17.7540   -10.8820     4.5060 hc         1 MRQ       0.067200
     71 H32         15.9130   -11.4530     2.1350 h1         1 MRQ       0.104700
     72 H33         13.4060   -12.7830     5.5180 hc         1 MRQ       0.073200
     73 H34         13.0750   -11.0690     5.5450 hc         1 MRQ       0.073200
     74 H35         10.6430   -10.4180     5.3970 ha         1 MRQ       0.153000
     75 H36         15.4940   -12.1070     4.9840 hn         1 MRQ       0.315500
     76 H38         19.9550   -16.5960     4.8670 hn         1 MRQ       0.312500
     77 H39         18.9650   -17.2870     3.6510 hn         1 MRQ       0.312500
     78 H40         15.6340   -14.0630     3.7130 hn         1 MRQ       0.343500
     79 H2           6.8610   -17.0900     0.9260 h4         1 MRQ       0.053100
     80 O5          18.2420   -12.9720     2.3550 o          1 MRQ      -0.601100
     81 O2          13.0210   -14.3890     3.4570 o          1 MRQ      -0.537100
     82 C14         11.1530   -17.7280     2.0950 c3         1 MRQ       0.150500
@<TRIPOS>BOND
     1     1     2 2   
     2     1    42 1   
     3     2     3 1   
     4     2     4 1   
     5     3    43 1   
     6     3    44 1   
     7     4     5 1   
     8     4    45 1   
     9     5     6 1   
    10     5    46 1   
    11     5    47 1   
    12     6    27 1   
    13     6    48 1   
    14     6    49 1   
    15     7     8 2   
    16     7    32 1   
    17     7    50 1   
    18     8    34 1   
    19     8    51 1   
    20     9    10 1   
    21     9    34 1   
    22     9    81 2   
    23    10    35 1   
    24    10    52 1   
    25    10    53 1   
    26    11    12 2   
    27    11    14 1   
    28    11    82 1   
    29    12    13 1   
    30    12    56 1   
    31    13    41 2   
    32    13    57 1   
    33    14    41 1   
    34    15    16 1   
    35    15    35 1   
    36    15    58 1   
    37    15    59 1   
    38    16    17 ar  
    39    16    21 ar  
    40    17    18 ar  
    41    17    60 1   
    42    18    19 ar  
    43    18    61 1   
    44    19    20 ar  
    45    19    62 1   
    46    20    21 ar  
    47    20    63 1   
    48    21    22 1   
    49    22    40 1   
    50    22    64 1   
    51    22    65 1   
    52    23    24 1   
    53    23    40 1   
    54    23    66 1   
    55    23    67 1   
    56    24    25 1   
    57    24    37 1   
    58    24    68 1   
    59    25    36 1   
    60    25    39 2   
    61    26    28 1   
    62    26    37 1   
    63    26    80 2   
    64    27    28 1   
    65    27    69 1   
    66    27    70 1   
    67    28    33 1   
    68    28    71 1   
    69    29    30 1   
    70    29    33 1   
    71    29    38 2   
    72    30    31 1   
    73    30    72 1   
    74    30    73 1   
    75    31    32 2   
    76    31    34 1   
    77    32    74 1   
    78    33    75 1   
    79    35    82 1   
    80    36    76 1   
    81    36    77 1   
    82    37    78 1   
    83    41    79 1   
    84    54    82 1   
    85    55    82 1   
@<TRIPOS>SUBSTRUCTURE
     1 MRQ         1 TEMP              0 ****  ****    0 ROOT
