@<TRIPOS>MOLECULE
MRT
  138   143     1     0     0
SMALL
No Charge or Current Charge


@<TRIPOS>ATOM
      1 O1          -7.9250     0.3030     1.0130 o          1 MRT      -0.561000
      2 O2          -9.5290    -0.0210    -0.5890 os         1 MRT      -0.457100
      3 C3         -10.2790    -0.8830     0.2870 c3         1 MRT       0.199600
      4 C4         -11.5310    -1.3920    -0.4650 c5         1 MRT       0.018900
      5 C5         -12.4940    -2.1470     0.4680 ca         1 MRT      -0.079800
      6 C6         -13.1270    -1.7380     1.6490 ca         1 MRT      -0.082500
      7 C7         -13.9630    -2.6630     2.3080 ca         1 MRT      -0.109000
      8 C8         -14.1490    -3.9630     1.7830 ca         1 MRT      -0.116000
      9 C9         -11.2050    -2.3960    -1.5880 ca         1 MRT      -0.079800
     10 C10        -10.3950    -2.2700    -2.7250 ca         1 MRT      -0.082500
     11 C11        -10.2810    -3.3800    -3.5870 ca         1 MRT      -0.109000
     12 C12        -10.9710    -4.5820    -3.3040 ca         1 MRT      -0.116000
     13 C13        -11.7840    -4.6880    -2.1570 ca         1 MRT      -0.091500
     14 C14        -11.8950    -3.5770    -1.2970 cp         1 MRT      -0.039500
     15 C15        -12.6670    -3.4270    -0.0640 cp         1 MRT      -0.039500
     16 C16        -13.5020    -4.3540     0.5920 ca         1 MRT      -0.091500
     17 C17         -8.3710     0.5220    -0.1040 c          1 MRT       0.639100
     18 C19         -5.2040     1.2630    -0.9340 c          1 MRT       0.569100
     19 O20         -5.1290     0.4390    -1.8460 o          1 MRT      -0.521100
     20 C21         -6.4870     2.0940    -0.6640 c3         1 MRT       0.065000
     21 C22         -6.4050     3.5240    -1.2170 ca         1 MRT      -0.132300
     22 C23         -5.6570     3.8360    -2.3740 ca         1 MRT      -0.104500
     23 C24         -5.6050     5.1580    -2.8510 ca         1 MRT      -0.112500
     24 C25         -6.2980     6.1780    -2.1800 ca         1 MRT      -0.077000
     25 C26         -7.0470     5.8760    -1.0310 ca         1 MRT      -0.112500
     26 C27         -7.1010     4.5550    -0.5530 ca         1 MRT      -0.104500
     27 N28         -7.7480     1.3790    -1.0340 n          1 MRT      -0.364800
     28 C29         -8.2940     1.5560    -2.4020 c3         1 MRT       0.092300
     29 C31         -0.1110     1.2290    -0.3530 c          1 MRT       0.605100
     30 C32         -1.4740     1.4280     0.4020 c3         1 MRT       0.097500
     31 C33         -1.5240     0.5550     1.6940 c3         1 MRT      -0.094400
     32 C34         -0.3270     0.7350     2.6750 c3         1 MRT      -0.065700
     33 C35         -0.2260     2.1740     3.2330 c3         1 MRT      -0.080600
     34 C36         -0.3960    -0.2950     3.8260 c3         1 MRT      -0.080600
     35 N37         -2.6600     1.1390    -0.4720 n7         1 MRT      -0.858400
     36 N38          0.6670     2.3610    -0.4870 ns         1 MRT      -0.451900
     37 C39          2.0470     2.3590    -1.0110 c3         1 MRT       0.051700
     38 C40          2.3670     3.6770    -1.7630 c3         1 MRT      -0.230400
     39 C41          1.4460     3.8550    -2.9720 c          1 MRT       0.716000
     40 O42          0.4180     4.4970    -2.8280 o          1 MRT      -0.743000
     41 O43          1.7730     3.3240    -4.0220 o          1 MRT      -0.743000
     42 C44          3.0400     2.1060     0.1610 c          1 MRT       0.591100
     43 O45          2.8270     2.4750     1.3100 o          1 MRT      -0.654100
     44 N46          4.1840     1.4150    -0.1790 ns         1 MRT      -0.471900
     45 C47          5.2280     0.9660     0.7750 c3         1 MRT       0.024700
     46 C48          4.9450    -0.4720     1.3470 c6         1 MRT      -0.062700
     47 C49          3.5900    -0.5710     2.1080 c6         1 MRT      -0.078400
     48 C50          3.3840    -1.9770     2.7220 c6         1 MRT      -0.068400
     49 C51          3.4710    -3.0740     1.6340 c6         1 MRT      -0.075400
     50 C52          4.8080    -2.9890     0.8600 c6         1 MRT      -0.068400
     51 C53          5.0240    -1.5790     0.2540 c6         1 MRT      -0.078400
     52 C54          6.6390     1.1120     0.1270 c          1 MRT       0.590100
     53 O55          6.8080     1.4540    -1.0390 o          1 MRT      -0.627100
     54 N56          7.6970     0.7990     0.9550 ns         1 MRT      -0.448900
     55 C57          9.1230     0.8180     0.5670 c3         1 MRT       0.046700
     56 C58          9.8560     2.0440     1.1800 c3         1 MRT      -0.226400
     57 C59          9.2690     3.3610     0.6580 c          1 MRT       0.718000
     58 O60          8.3830     3.8990     1.3050 o          1 MRT      -0.743000
     59 O61          9.7220     3.8160    -0.3810 o          1 MRT      -0.743000
     60 C62          9.7920    -0.5310     0.9710 c          1 MRT       0.580100
     61 O63          9.2670    -1.3370     1.7340 o          1 MRT      -0.667100
     62 N64         11.0300    -0.7590     0.4040 ns         1 MRT      -0.466900
     63 C65         11.8010    -2.0240     0.5050 c3         1 MRT      -0.032300
     64 C66         13.3140    -1.7330     0.7450 c          1 MRT       0.712000
     65 O67         13.8660    -0.8910     0.0470 o          1 MRT      -0.734000
     66 O68         13.8700    -2.2950     1.6790 o          1 MRT      -0.734000
     67 C69         11.5920    -2.9180    -0.7440 c3         1 MRT      -0.036100
     68 C70         10.1250    -3.1680    -1.0800 ca         1 MRT      -0.046300
     69 C71          9.4910    -2.4250    -2.0970 ca         1 MRT      -0.100000
     70 C72          8.1400    -2.6570    -2.4090 ca         1 MRT      -0.118000
     71 C73          7.4150    -3.6350    -1.7090 ca         1 MRT      -0.140000
     72 C74          8.0390    -4.3750    -0.6910 ca         1 MRT      -0.118000
     73 C75          9.3890    -4.1430    -0.3770 ca         1 MRT      -0.100000
     74 H3          -9.6760    -1.7430     0.6090 h1         1 MRT       0.054200
     75 H3A        -10.5970    -0.3320     1.1820 h1         1 MRT       0.054200
     76 H4         -12.0290    -0.5060    -0.8750 hc         1 MRT       0.086700
     77 H6         -12.9800    -0.7360     2.0470 ha         1 MRT       0.126000
     78 H7         -14.4680    -2.3740     3.2270 ha         1 MRT       0.113500
     79 H8         -14.7970    -4.6670     2.3010 ha         1 MRT       0.106500
     80 H10         -9.8710    -1.3430    -2.9390 ha         1 MRT       0.126000
     81 H11         -9.6590    -3.3100    -4.4770 ha         1 MRT       0.113500
     82 H12        -10.8750    -5.4310    -3.9780 ha         1 MRT       0.106500
     83 H13        -12.3160    -5.6110    -1.9400 ha         1 MRT       0.109500
     84 H16        -13.6460    -5.3530     0.1880 ha         1 MRT       0.109500
     85 H18         -4.0240     2.6170     0.2610 h1         1 MRT       0.046200
     86 H18A        -4.2570     1.0190     0.9730 h1         1 MRT       0.046200
     87 H21         -6.4980     2.2110     0.4270 h1         1 MRT       0.088700
     88 H23         -5.1190     3.0620    -2.9160 ha         1 MRT       0.114500
     89 H24         -5.0270     5.3900    -3.7440 ha         1 MRT       0.144500
     90 H25         -6.2570     7.2010    -2.5510 ha         1 MRT       0.149000
     91 H26         -7.5880     6.6640    -0.5110 ha         1 MRT       0.144500
     92 H27         -7.6880     4.3320     0.3360 ha         1 MRT       0.114500
     93 H29         -9.2020     2.1700    -2.3600 h1         1 MRT       0.048367
     94 H29A        -7.5620     2.0430    -3.0580 h1         1 MRT       0.048367
     95 H29B        -8.5370     0.5800    -2.8390 h1         1 MRT       0.048367
     96 H32         -1.5120     2.4830     0.7050 h1         1 MRT       0.061700
     97 H34          0.6030     0.5280     2.1310 hc         1 MRT       0.098700
     98 H35          0.6110     2.2560     3.9370 hc         1 MRT       0.026367
     99 H35A        -0.0540     2.9010     2.4320 hc         1 MRT       0.026367
    100 H35B        -1.1460     2.4540     3.7620 hc         1 MRT       0.026367
    101 H36         -0.4060    -1.3180     3.4310 hc         1 MRT       0.026367
    102 H36A         0.4760    -0.1980     4.4840 hc         1 MRT       0.026367
    103 H36B        -1.3000    -0.1490     4.4280 hc         1 MRT       0.026367
    104 HN37        -2.6650     0.1360    -0.7110 hn         1 MRT       0.439000
    105 HN38         0.2900     3.2250    -0.1180 hn         1 MRT       0.320500
    106 H39          2.1570     1.5230    -1.7150 h1         1 MRT       0.098700
    107 H40          2.2230     4.4930    -1.0440 hc         1 MRT       0.052200
    108 H40A         3.4040     3.5710    -2.1040 hc         1 MRT       0.052200
    109 HN46         4.3150     1.1990    -1.1610 hn         1 MRT       0.337500
    110 H47          5.2310     1.6590     1.6270 h1         1 MRT       0.088700
    111 H48          5.7390    -0.6690     2.0800 hc         1 MRT       0.049700
    112 H49          3.5440     0.1870     2.9020 hc         1 MRT       0.058200
    113 H49A         2.7570    -0.3620     1.4240 hc         1 MRT       0.058200
    114 H50          4.1420    -2.1590     3.4960 hc         1 MRT       0.028200
    115 H50A         2.4070    -2.0250     3.2220 hc         1 MRT       0.028200
    116 H51          3.3700    -4.0660     2.0960 hc         1 MRT       0.023200
    117 H51A         2.6310    -2.9680     0.9340 hc         1 MRT       0.023200
    118 H52          5.6420    -3.2330     1.5320 hc         1 MRT       0.028200
    119 H52A         4.8210    -3.7440     0.0620 hc         1 MRT       0.028200
    120 H53          4.2690    -1.3970    -0.5240 hc         1 MRT       0.058200
    121 H53A         6.0000    -1.5500    -0.2480 hc         1 MRT       0.058200
    122 HN56         7.4680     0.4780     1.8880 hn         1 MRT       0.316500
    123 H57          9.1960     0.8770    -0.5270 h1         1 MRT       0.101700
    124 H58          9.7280     1.9690     2.2660 hc         1 MRT       0.040200
    125 H58A        10.9000     1.9580     0.8540 hc         1 MRT       0.040200
    126 HN64        11.4140    -0.0170    -0.1710 hn         1 MRT       0.337500
    127 H65         11.4420    -2.5770     1.3820 h1         1 MRT       0.057700
    128 H69         12.0940    -2.4530    -1.6010 hc         1 MRT       0.044700
    129 H69A        12.1050    -3.8740    -0.5810 hc         1 MRT       0.044700
    130 H71         10.0450    -1.6670    -2.6450 ha         1 MRT       0.115500
    131 H72          7.6570    -2.0800    -3.1940 ha         1 MRT       0.096000
    132 H73          6.3710    -3.8160    -1.9530 ha         1 MRT       0.089000
    133 H74          7.4760    -5.1280    -0.1440 ha         1 MRT       0.096000
    134 H75          9.8650    -4.7180     0.4140 ha         1 MRT       0.115500
    135 H33         -2.4470     0.7670     2.2460 hc         1 MRT       0.034200
    136 O30          0.2620     0.1400    -0.7810 o          1 MRT      -0.625100
    137 C18         -4.0150     1.5420     0.0390 c3         1 MRT       0.074800
    138 H33A        -1.5750    -0.5000     1.3970 hc         1 MRT       0.034200
@<TRIPOS>BOND
     1     1    17 2   
     2     2     3 1   
     3     2    17 1   
     4     3     4 1   
     5     3    74 1   
     6     3    75 1   
     7     4     5 1   
     8     4     9 1   
     9     4    76 1   
    10     5     6 ar  
    11     5    15 ar  
    12     6     7 ar  
    13     6    77 1   
    14     7     8 ar  
    15     7    78 1   
    16     8    16 ar  
    17     8    79 1   
    18     9    10 ar  
    19     9    14 ar  
    20    10    11 ar  
    21    10    80 1   
    22    11    12 ar  
    23    11    81 1   
    24    12    13 ar  
    25    12    82 1   
    26    13    14 ar  
    27    13    83 1   
    28    14    15 1   
    29    15    16 ar  
    30    16    84 1   
    31    17    27 1   
    32    18    19 2   
    33    18    20 1   
    34    18   137 1   
    35    20    21 1   
    36    20    27 1   
    37    20    87 1   
    38    21    22 ar  
    39    21    26 ar  
    40    22    23 ar  
    41    22    88 1   
    42    23    24 ar  
    43    23    89 1   
    44    24    25 ar  
    45    24    90 1   
    46    25    26 ar  
    47    25    91 1   
    48    26    92 1   
    49    27    28 1   
    50    28    93 1   
    51    28    94 1   
    52    28    95 1   
    53    29    30 1   
    54    29    36 1   
    55    29   136 2   
    56    30    31 1   
    57    30    35 1   
    58    30    96 1   
    59    31    32 1   
    60    31   135 1   
    61    31   138 1   
    62    32    33 1   
    63    32    34 1   
    64    32    97 1   
    65    33    98 1   
    66    33    99 1   
    67    33   100 1   
    68    34   101 1   
    69    34   102 1   
    70    34   103 1   
    71    35   104 1   
    72    35   137 1   
    73    36    37 1   
    74    36   105 1   
    75    37    38 1   
    76    37    42 1   
    77    37   106 1   
    78    38    39 1   
    79    38   107 1   
    80    38   108 1   
    81    39    40 1   
    82    39    41 1   
    83    42    43 2   
    84    42    44 1   
    85    44    45 1   
    86    44   109 1   
    87    45    46 1   
    88    45    52 1   
    89    45   110 1   
    90    46    47 1   
    91    46    51 1   
    92    46   111 1   
    93    47    48 1   
    94    47   112 1   
    95    47   113 1   
    96    48    49 1   
    97    48   114 1   
    98    48   115 1   
    99    49    50 1   
   100    49   116 1   
   101    49   117 1   
   102    50    51 1   
   103    50   118 1   
   104    50   119 1   
   105    51   120 1   
   106    51   121 1   
   107    52    53 2   
   108    52    54 1   
   109    54    55 1   
   110    54   122 1   
   111    55    56 1   
   112    55    60 1   
   113    55   123 1   
   114    56    57 1   
   115    56   124 1   
   116    56   125 1   
   117    57    58 1   
   118    57    59 1   
   119    60    61 2   
   120    60    62 1   
   121    62    63 1   
   122    62   126 1   
   123    63    64 1   
   124    63    67 1   
   125    63   127 1   
   126    64    65 1   
   127    64    66 1   
   128    67    68 1   
   129    67   128 1   
   130    67   129 1   
   131    68    69 ar  
   132    68    73 ar  
   133    69    70 ar  
   134    69   130 1   
   135    70    71 ar  
   136    70   131 1   
   137    71    72 ar  
   138    71   132 1   
   139    72    73 ar  
   140    72   133 1   
   141    73   134 1   
   142    85   137 1   
   143    86   137 1   
@<TRIPOS>SUBSTRUCTURE
     1 MRT         1 TEMP              0 ****  ****    0 ROOT
