@<TRIPOS>MOLECULE
MRT
  138   143     1     0     0
SMALL
abcg2


@<TRIPOS>ATOM
      1 O1          -8.1220     0.7890     0.7340 o          1 MRT      -0.561000
      2 O2          -8.5810    -0.2240    -1.2140 os         1 MRT      -0.457100
      3 C3          -9.8440    -0.6470    -0.7100 c3         1 MRT       0.199600
      4 C4         -10.5620    -1.3890    -1.8290 c5         1 MRT       0.018900
      5 C5         -11.9260    -1.8330    -1.3610 ca         1 MRT      -0.079800
      6 C6         -12.9830    -1.0630    -0.9090 ca         1 MRT      -0.082500
      7 C7         -14.1540    -1.7010    -0.5080 ca         1 MRT      -0.109000
      8 C8         -14.2590    -3.0880    -0.5610 ca         1 MRT      -0.116000
      9 C9          -9.9130    -2.7000    -2.2070 ca         1 MRT      -0.079800
     10 C10         -8.6620    -2.9410    -2.7480 ca         1 MRT      -0.082500
     11 C11         -8.2820    -4.2550    -3.0080 ca         1 MRT      -0.109000
     12 C12         -9.1440    -5.3130    -2.7320 ca         1 MRT      -0.116000
     13 C13        -10.4040    -5.0760    -2.1990 ca         1 MRT      -0.091500
     14 C14        -10.7820    -3.7650    -1.9420 cp         1 MRT      -0.039500
     15 C15        -12.0330    -3.2260    -1.4150 cp         1 MRT      -0.039500
     16 C16        -13.2000    -3.8630    -1.0160 ca         1 MRT      -0.091500
     17 C17         -7.8070     0.4980    -0.4030 c          1 MRT       0.639100
     18 C19         -4.8690     0.5340     0.6610 c          1 MRT       0.569100
     19 O20         -4.9910    -0.6580     0.5200 o          1 MRT      -0.521100
     20 C21         -5.6740     1.5310    -0.1610 c3         1 MRT       0.065000
     21 C22         -4.7710     2.4830    -0.9190 ca         1 MRT      -0.132300
     22 C23         -3.5130     2.0960    -1.3710 ca         1 MRT      -0.104500
     23 C24         -2.6960     2.9940    -2.0440 ca         1 MRT      -0.112500
     24 C25         -3.1360     4.2880    -2.2830 ca         1 MRT      -0.077000
     25 C26         -4.3980     4.6780    -1.8520 ca         1 MRT      -0.112500
     26 C27         -5.2080     3.7800    -1.1710 ca         1 MRT      -0.104500
     27 N28         -6.6550     0.8790    -1.0070 n          1 MRT      -0.364800
     28 C29         -6.2520     0.3160    -2.2840 c3         1 MRT       0.092300
     29 C31         -0.2430     1.2520     1.1460 c          1 MRT       0.605100
     30 C32         -1.5240     1.5590     1.9090 c3         1 MRT       0.097500
     31 C33         -1.2920     1.4010     3.4150 c3         1 MRT      -0.094400
     32 C34         -0.1840     2.2680     4.0160 c3         1 MRT      -0.065700
     33 C35         -0.4510     3.7580     3.8350 c3         1 MRT      -0.080600
     34 C36         -0.0140     1.9310     5.4950 c3         1 MRT      -0.080600
     35 N37         -2.5670     0.6950     1.3790 n7         1 MRT      -0.858400
     36 N38          0.2740     2.2640     0.4350 ns         1 MRT      -0.451900
     37 C39          1.5540     2.1660    -0.2230 c3         1 MRT       0.051700
     38 C40          1.8080     3.4150    -1.0580 c3         1 MRT      -0.230400
     39 C41          0.8730     3.5460    -2.2790 c          1 MRT       0.716000
     40 O42          0.4560     4.6880    -2.5420 o          1 MRT      -0.743000
     41 O43          0.6490     2.4960    -2.9150 o          1 MRT      -0.743000
     42 C44          2.6650     2.0350     0.8170 c          1 MRT       0.591100
     43 O45          2.6780     2.7190     1.8280 o          1 MRT      -0.654100
     44 N46          3.6310     1.1660     0.4840 ns         1 MRT      -0.471900
     45 C47          4.8420     0.9760     1.2370 c3         1 MRT       0.024700
     46 C48          4.8190    -0.3110     2.0860 c6         1 MRT      -0.062700
     47 C49          3.6630    -0.2960     3.0870 c6         1 MRT      -0.078400
     48 C50          3.6790    -1.5420     3.9670 c6         1 MRT      -0.068400
     49 C51          3.6410    -2.8100     3.1200 c6         1 MRT      -0.075400
     50 C52          4.7840    -2.8260     2.1130 c6         1 MRT      -0.068400
     51 C53          4.7820    -1.5790     1.2350 c6         1 MRT      -0.078400
     52 C54          6.0240     0.9940     0.2650 c          1 MRT       0.590100
     53 O55          5.8650     1.0100    -0.9460 o          1 MRT      -0.627100
     54 N56          7.2340     1.0000     0.8400 ns         1 MRT      -0.448900
     55 C57          8.4530     0.8840     0.0800 c3         1 MRT       0.046700
     56 C58          9.6380     1.2380     0.9720 c3         1 MRT      -0.226400
     57 C59          9.6650     2.7170     1.4120 c          1 MRT       0.718000
     58 O60         10.1060     2.9440     2.5550 o          1 MRT      -0.743000
     59 O61          9.2800     3.5580     0.5780 o          1 MRT      -0.743000
     60 C62          8.6280    -0.5400    -0.4520 c          1 MRT       0.580100
     61 O63          8.3010    -1.5120     0.2110 o          1 MRT      -0.667100
     62 N64          9.2260    -0.6020    -1.6490 ns         1 MRT      -0.466900
     63 C65          9.7380    -1.8010    -2.2630 c3         1 MRT      -0.032300
     64 C66         11.1220    -1.5270    -2.9060 c          1 MRT       0.712000
     65 O67         11.4760    -0.3380    -3.0150 o          1 MRT      -0.734000
     66 O68         11.7430    -2.5370    -3.2830 o          1 MRT      -0.734000
     67 C69          8.7840    -2.3480    -3.3420 c3         1 MRT      -0.036100
     68 C70          7.4320    -2.7290    -2.8160 ca         1 MRT      -0.046300
     69 C71          6.3980    -1.8000    -2.7470 ca         1 MRT      -0.100000
     70 C72          5.1550    -2.1530    -2.2400 ca         1 MRT      -0.118000
     71 C73          4.9230    -3.4480    -1.7980 ca         1 MRT      -0.140000
     72 C74          5.9470    -4.3840    -1.8600 ca         1 MRT      -0.118000
     73 C75          7.1880    -4.0250    -2.3640 ca         1 MRT      -0.100000
     74 H3          -9.7150    -1.3020     0.1550 h1         1 MRT       0.054200
     75 H3A        -10.4320     0.2190    -0.3980 h1         1 MRT       0.054200
     76 H4         -10.6450    -0.7220    -2.6960 hc         1 MRT       0.086700
     77 H6         -12.9110     0.0170    -0.8690 ha         1 MRT       0.126000
     78 H7         -14.9910    -1.1130    -0.1540 ha         1 MRT       0.113500
     79 H8         -15.1770    -3.5660    -0.2440 ha         1 MRT       0.106500
     80 H10         -7.9840    -2.1300    -2.9790 ha         1 MRT       0.126000
     81 H11         -7.3070    -4.4570    -3.4320 ha         1 MRT       0.113500
     82 H12         -8.8300    -6.3270    -2.9400 ha         1 MRT       0.106500
     83 H13        -11.0760    -5.9010    -1.9960 ha         1 MRT       0.109500
     84 H16        -13.2910    -4.9410    -1.0570 ha         1 MRT       0.109500
     85 H18         -3.9600     2.2130     1.6440 h1         1 MRT       0.046200
     86 H18A        -4.2760     0.8330     2.6840 h1         1 MRT       0.046200
     87 H21         -6.2160     2.1360     0.5740 h1         1 MRT       0.088700
     88 H23         -3.1450     1.0960    -1.1810 ha         1 MRT       0.114500
     89 H24         -1.7170     2.6800    -2.3810 ha         1 MRT       0.144500
     90 H25         -2.4870     4.9870    -2.7940 ha         1 MRT       0.149000
     91 H26         -4.7470     5.6860    -2.0340 ha         1 MRT       0.144500
     92 H27         -6.1860     4.0930    -0.8240 ha         1 MRT       0.114500
     93 H29         -7.0550     0.3900    -3.0130 h1         1 MRT       0.048367
     94 H29A        -5.4130     0.8830    -2.6740 h1         1 MRT       0.048367
     95 H29B        -5.9440    -0.7280    -2.1980 h1         1 MRT       0.048367
     96 H32         -1.8320     2.5860     1.6910 h1         1 MRT       0.061700
     97 H34          0.7600     2.0290     3.5140 hc         1 MRT       0.098700
     98 H35          0.3200     4.3530     4.3260 hc         1 MRT       0.026367
     99 H35A        -0.4610     4.0570     2.7860 hc         1 MRT       0.026367
    100 H35B        -1.4140     4.0400     4.2690 hc         1 MRT       0.026367
    101 H36          0.2240     0.8760     5.6390 hc         1 MRT       0.026367
    102 H36A         0.7930     2.5160     5.9400 hc         1 MRT       0.026367
    103 H36B        -0.9260     2.1460     6.0570 hc         1 MRT       0.026367
    104 HN37        -2.4200    -0.2600     1.6810 hn         1 MRT       0.439000
    105 HN38        -0.1810     3.1620     0.4580 hn         1 MRT       0.320500
    106 H39          1.5520     1.2990    -0.8870 h1         1 MRT       0.098700
    107 H40          1.7520     4.3030    -0.4230 hc         1 MRT       0.052200
    108 H40A         2.8360     3.3700    -1.4330 hc         1 MRT       0.052200
    109 HN46         3.5560     0.6760    -0.3930 hn         1 MRT       0.337500
    110 H47          4.9460     1.8260     1.9180 h1         1 MRT       0.088700
    111 H48          5.7490    -0.3270     2.6690 hc         1 MRT       0.049700
    112 H49          3.7080     0.6070     3.7020 hc         1 MRT       0.058200
    113 H49A         2.7130    -0.2560     2.5460 hc         1 MRT       0.058200
    114 H50          4.5830    -1.5450     4.5860 hc         1 MRT       0.028200
    115 H50A         2.8300    -1.5200     4.6560 hc         1 MRT       0.028200
    116 H51          3.6810    -3.6970     3.7580 hc         1 MRT       0.023200
    117 H51A         2.6860    -2.8530     2.5850 hc         1 MRT       0.023200
    118 H52          5.7380    -2.8810     2.6480 hc         1 MRT       0.028200
    119 H52A         4.7300    -3.7190     1.4840 hc         1 MRT       0.028200
    120 H53          3.8780    -1.5800     0.6150 hc         1 MRT       0.058200
    121 H53A         5.6300    -1.6180     0.5500 hc         1 MRT       0.058200
    122 HN56         7.2990     0.9360     1.8430 hn         1 MRT       0.316500
    123 H57          8.4200     1.5950    -0.7480 h1         1 MRT       0.101700
    124 H58          9.6560     0.5750     1.8410 hc         1 MRT       0.040200
    125 H58A        10.5610     1.0360     0.4180 hc         1 MRT       0.040200
    126 HN64         9.5600     0.2550    -2.0660 hn         1 MRT       0.337500
    127 H65          9.8540    -2.5640    -1.4900 h1         1 MRT       0.057700
    128 H69          8.6800    -1.5930    -4.1270 hc         1 MRT       0.044700
    129 H69A         9.2620    -3.2170    -3.7980 hc         1 MRT       0.044700
    130 H71          6.5680    -0.7830    -3.0770 ha         1 MRT       0.115500
    131 H72          4.3700    -1.4110    -2.1850 ha         1 MRT       0.096000
    132 H73          3.9540    -3.7250    -1.4020 ha         1 MRT       0.089000
    133 H74          5.7760    -5.3980    -1.5180 ha         1 MRT       0.096000
    134 H75          7.9810    -4.7630    -2.4110 ha         1 MRT       0.115500
    135 H33         -2.2340     1.6180     3.9310 hc         1 MRT       0.034200
    136 O30          0.2740     0.1440     1.1890 o          1 MRT      -0.625100
    137 C18         -3.9170     1.1230     1.6860 c3         1 MRT       0.074800
    138 H33A        -1.0650     0.3480     3.6120 hc         1 MRT       0.034200
@<TRIPOS>BOND
     1     1    17 2   
     2     2     3 1   
     3     2    17 1   
     4     3     4 1   
     5     3    74 1   
     6     3    75 1   
     7     4     5 1   
     8     4     9 1   
     9     4    76 1   
    10     5     6 ar  
    11     5    15 ar  
    12     6     7 ar  
    13     6    77 1   
    14     7     8 ar  
    15     7    78 1   
    16     8    16 ar  
    17     8    79 1   
    18     9    10 ar  
    19     9    14 ar  
    20    10    11 ar  
    21    10    80 1   
    22    11    12 ar  
    23    11    81 1   
    24    12    13 ar  
    25    12    82 1   
    26    13    14 ar  
    27    13    83 1   
    28    14    15 1   
    29    15    16 ar  
    30    16    84 1   
    31    17    27 1   
    32    18    19 2   
    33    18    20 1   
    34    18   137 1   
    35    20    21 1   
    36    20    27 1   
    37    20    87 1   
    38    21    22 ar  
    39    21    26 ar  
    40    22    23 ar  
    41    22    88 1   
    42    23    24 ar  
    43    23    89 1   
    44    24    25 ar  
    45    24    90 1   
    46    25    26 ar  
    47    25    91 1   
    48    26    92 1   
    49    27    28 1   
    50    28    93 1   
    51    28    94 1   
    52    28    95 1   
    53    29    30 1   
    54    29    36 1   
    55    29   136 2   
    56    30    31 1   
    57    30    35 1   
    58    30    96 1   
    59    31    32 1   
    60    31   135 1   
    61    31   138 1   
    62    32    33 1   
    63    32    34 1   
    64    32    97 1   
    65    33    98 1   
    66    33    99 1   
    67    33   100 1   
    68    34   101 1   
    69    34   102 1   
    70    34   103 1   
    71    35   104 1   
    72    35   137 1   
    73    36    37 1   
    74    36   105 1   
    75    37    38 1   
    76    37    42 1   
    77    37   106 1   
    78    38    39 1   
    79    38   107 1   
    80    38   108 1   
    81    39    40 1   
    82    39    41 1   
    83    42    43 2   
    84    42    44 1   
    85    44    45 1   
    86    44   109 1   
    87    45    46 1   
    88    45    52 1   
    89    45   110 1   
    90    46    47 1   
    91    46    51 1   
    92    46   111 1   
    93    47    48 1   
    94    47   112 1   
    95    47   113 1   
    96    48    49 1   
    97    48   114 1   
    98    48   115 1   
    99    49    50 1   
   100    49   116 1   
   101    49   117 1   
   102    50    51 1   
   103    50   118 1   
   104    50   119 1   
   105    51   120 1   
   106    51   121 1   
   107    52    53 2   
   108    52    54 1   
   109    54    55 1   
   110    54   122 1   
   111    55    56 1   
   112    55    60 1   
   113    55   123 1   
   114    56    57 1   
   115    56   124 1   
   116    56   125 1   
   117    57    58 1   
   118    57    59 1   
   119    60    61 2   
   120    60    62 1   
   121    62    63 1   
   122    62   126 1   
   123    63    64 1   
   124    63    67 1   
   125    63   127 1   
   126    64    65 1   
   127    64    66 1   
   128    67    68 1   
   129    67   128 1   
   130    67   129 1   
   131    68    69 ar  
   132    68    73 ar  
   133    69    70 ar  
   134    69   130 1   
   135    70    71 ar  
   136    70   131 1   
   137    71    72 ar  
   138    71   132 1   
   139    72    73 ar  
   140    72   133 1   
   141    73   134 1   
   142    85   137 1   
   143    86   137 1   
@<TRIPOS>SUBSTRUCTURE
     1 MRT         1 TEMP              0 ****  ****    0 ROOT
