@<TRIPOS>MOLECULE
MRV
   78    82     1     0     0
SMALL
No Charge or Current Charge


@<TRIPOS>ATOM
      1 F1          -6.1590     3.4490    -1.8190 f          1 MRV      -0.122000
      2 O1          -2.9990    -0.3930    -1.9380 o          1 MRV      -0.584100
      3 C1           4.0920     1.3840    -0.2670 c6         1 MRV       0.092300
      4 N1           5.5670     1.1900    -0.2070 na         1 MRV      -0.368000
      5 C12         -0.3340    -1.5510     0.2640 c3         1 MRV      -0.092400
      6 C13         -1.7560    -2.1060     0.0130 c3         1 MRV       0.166000
      7 C15         -2.0630    -3.3240     0.8820 ca         1 MRV      -0.097300
      8 C16         -3.2990    -0.2680    -0.7600 c          1 MRV       0.601100
      9 C17         -4.2810     0.8190    -0.2790 c6         1 MRV      -0.146700
     10 C18         -6.1390     3.1290    -0.4490 c6         1 MRV       0.181000
     11 C19          6.3130    -2.0240    -1.7960 c3         1 MRV      -0.084100
     12 F2          -6.9980     4.0460     0.1810 f          1 MRV      -0.122000
     13 N2           1.4810     0.0330    -0.5580 n3         1 MRV      -0.700600
     14 C2           1.8050     0.7440     0.7140 c5         1 MRV       0.161000
     15 C20          6.1660    -2.2920     0.7430 c3         1 MRV      -0.084100
     16 C21         -3.7270     2.2580    -0.4720 c6         1 MRV      -0.065400
     17 C22         -5.7230     0.6260    -0.8230 c6         1 MRV      -0.065400
     18 C23         -4.7040     3.3160     0.1060 c6         1 MRV      -0.127400
     19 C24         -6.6870     1.6950    -0.2430 c6         1 MRV      -0.127400
     20 C25         -2.0150    -3.2430     2.2900 ca         1 MRV      -0.095500
     21 C26         -2.4100    -4.5500     0.2770 ca         1 MRV      -0.095500
     22 C27         -2.3030    -4.3710     3.0780 ca         1 MRV      -0.108500
     23 C28         -2.6970    -5.6770     1.0660 ca         1 MRV      -0.108500
     24 C29         -2.6440    -5.5880     2.4670 ca         1 MRV      -0.104000
     25 C3           1.9320     0.9960    -1.6000 c5         1 MRV       0.161000
     26 N3           7.5980     0.3100    -0.1900 nc         1 MRV      -0.367000
     27 C4           6.3050     0.0220    -0.2920 cd         1 MRV       0.391800
     28 N4           7.7200     1.6770    -0.0370 nc         1 MRV      -0.361000
     29 N5          -2.7750    -1.0760     0.2240 ns         1 MRV      -0.512900
     30 C5           3.3470     0.7090     0.9110 c6         1 MRV      -0.077900
     31 C6           3.4860     0.9860    -1.6350 c6         1 MRV      -0.077900
     32 C7           6.4990     2.1870    -0.0490 cd         1 MRV       0.379800
     33 C8           1.2070     2.1630     0.4520 c5         1 MRV      -0.110900
     34 C9           1.2910     2.3320    -1.1050 c5         1 MRV      -0.110900
     35 H1           3.9030     2.4600    -0.1600 h1         1 MRV       0.059700
     36 H2          -0.0630    -0.8070    -1.7330 h1         1 MRV       0.035700
     37 H3          -0.6190     0.4160    -0.5910 h1         1 MRV       0.035700
     38 H4           4.7160    -1.4130    -0.5370 hc         1 MRV       0.058700
     39 H5           0.3860    -2.3730     0.1680 hc         1 MRV       0.058700
     40 H6          -0.2670    -1.1860     1.2940 hc         1 MRV       0.058700
     41 H7          -1.8030    -2.4250    -1.0380 h1         1 MRV       0.074700
     42 H8           5.6930     4.0420    -0.7880 hc         1 MRV       0.055700
     43 H9           5.5980     3.8540     0.9740 hc         1 MRV       0.055700
     44 H10          7.1470     4.2330     0.2050 hc         1 MRV       0.055700
     45 H11         -4.3560     0.6780     0.8090 hc         1 MRV       0.052700
     46 H12          5.8890    -3.0240    -1.9450 hc         1 MRV       0.042033
     47 H13          6.0190    -1.4000    -2.6490 hc         1 MRV       0.042033
     48 H14          7.4070    -2.1120    -1.7970 hc         1 MRV       0.042033
     49 H16          1.3490     0.2760     1.5970 h1         1 MRV       0.069700
     50 H17          7.2520    -2.3920     0.8500 hc         1 MRV       0.042033
     51 H18          5.7680    -1.8570     1.6670 hc         1 MRV       0.042033
     52 H19          5.7390    -3.2960     0.6300 hc         1 MRV       0.042033
     53 H20         -2.7450     2.3540     0.0120 hc         1 MRV       0.063450
     54 H21         -3.5630     2.4500    -1.5420 hc         1 MRV       0.063450
     55 H22         -5.7160     0.6900    -1.9200 hc         1 MRV       0.063450
     56 H23         -6.0900    -0.3800    -0.5740 hc         1 MRV       0.063450
     57 H24         -4.3410     4.3270    -0.1240 hc         1 MRV       0.066950
     58 H25         -4.7240     3.2350     1.2010 hc         1 MRV       0.066950
     59 H26         -6.8320     1.5120     0.8310 hc         1 MRV       0.066950
     60 H27         -7.6770     1.6000    -0.7090 hc         1 MRV       0.066950
     61 H28         -1.7580    -2.3060     2.7790 ha         1 MRV       0.108000
     62 H29         -2.4570    -4.6320    -0.8060 ha         1 MRV       0.108000
     63 H30         -2.2640    -4.3000     4.1630 ha         1 MRV       0.113000
     64 H31         -2.9630    -6.6190     0.5910 ha         1 MRV       0.113000
     65 H32         -2.8670    -6.4610     3.0770 ha         1 MRV       0.114000
     66 H33          1.5700     0.7240    -2.6030 h1         1 MRV       0.069700
     67 H34         -3.0990    -0.9140     1.1680 hn         1 MRV       0.309500
     68 H35          3.6560    -0.3330     1.0430 hc         1 MRV       0.061950
     69 H36          3.6070     1.2200     1.8480 hc         1 MRV       0.061950
     70 H37          3.8390     1.6830    -2.4060 hc         1 MRV       0.061950
     71 H38          3.8200    -0.0070    -1.9540 hc         1 MRV       0.061950
     72 H39          0.1670     2.2180     0.7930 hc         1 MRV       0.049700
     73 H40          1.7540     2.9460     0.9890 hc         1 MRV       0.049700
     74 H41          1.8810     3.2070    -1.4010 hc         1 MRV       0.049700
     75 H42          0.2920     2.4700    -1.5350 hc         1 MRV       0.049700
     76 C10          0.0750    -0.4260    -0.7120 c3         1 MRV       0.163800
     77 C11          5.8070    -1.4060    -0.4720 c3         1 MRV      -0.087000
     78 C14          6.2190     3.6590     0.0930 c3         1 MRV      -0.122400
@<TRIPOS>BOND
     1     1    10 1   
     2     2     8 2   
     3     3     4 1   
     4     3    30 1   
     5     3    31 1   
     6     3    35 1   
     7     4    27 1   
     8     4    32 1   
     9     5     6 1   
    10     5    39 1   
    11     5    40 1   
    12     5    76 1   
    13     6     7 1   
    14     6    29 1   
    15     6    41 1   
    16     7    20 ar  
    17     7    21 ar  
    18     8     9 1   
    19     8    29 1   
    20     9    16 1   
    21     9    17 1   
    22     9    45 1   
    23    10    12 1   
    24    10    18 1   
    25    10    19 1   
    26    11    46 1   
    27    11    47 1   
    28    11    48 1   
    29    11    77 1   
    30    13    14 1   
    31    13    25 1   
    32    13    76 1   
    33    14    30 1   
    34    14    33 1   
    35    14    49 1   
    36    15    50 1   
    37    15    51 1   
    38    15    52 1   
    39    15    77 1   
    40    16    18 1   
    41    16    53 1   
    42    16    54 1   
    43    17    19 1   
    44    17    55 1   
    45    17    56 1   
    46    18    57 1   
    47    18    58 1   
    48    19    59 1   
    49    19    60 1   
    50    20    22 ar  
    51    20    61 1   
    52    21    23 ar  
    53    21    62 1   
    54    22    24 ar  
    55    22    63 1   
    56    23    24 ar  
    57    23    64 1   
    58    24    65 1   
    59    25    31 1   
    60    25    34 1   
    61    25    66 1   
    62    26    27 2   
    63    26    28 1   
    64    27    77 1   
    65    28    32 2   
    66    29    67 1   
    67    30    68 1   
    68    30    69 1   
    69    31    70 1   
    70    31    71 1   
    71    32    78 1   
    72    33    34 1   
    73    33    72 1   
    74    33    73 1   
    75    34    74 1   
    76    34    75 1   
    77    36    76 1   
    78    37    76 1   
    79    38    77 1   
    80    42    78 1   
    81    43    78 1   
    82    44    78 1   
@<TRIPOS>SUBSTRUCTURE
     1 MRV         1 TEMP              0 ****  ****    0 ROOT
