@<TRIPOS>MOLECULE
MRV
   78    82     1     0     0
SMALL
bcc


@<TRIPOS>ATOM
      1 F1          -7.9740     1.1730     0.3100 f          1 MRV      -0.243300
      2 O1          -4.1310    -1.1850    -1.6820 o          1 MRV      -0.584100
      3 C1           4.4430     1.2700     0.0210 c6         1 MRV       0.063000
      4 N1           5.8270     0.8620     0.2220 na         1 MRV      -0.338700
      5 C12         -0.1710    -1.0530    -0.1520 c3         1 MRV      -0.092400
      6 C13         -1.5770    -1.4450    -0.6040 c3         1 MRV       0.166000
      7 C15         -2.0430    -2.6780     0.1410 ca         1 MRV      -0.097300
      8 C16         -3.7150    -0.2970    -0.9540 c          1 MRV       0.668100
      9 C17         -4.5530     0.9020    -0.5480 c6         1 MRV      -0.146700
     10 C18         -7.0440     2.1870     0.2970 c6         1 MRV       0.423600
     11 C19          6.2900    -2.1860    -1.5910 c3         1 MRV      -0.084100
     12 F2          -7.7360     3.3060     0.6860 f          1 MRV      -0.243300
     13 N2           1.8250     0.3100    -0.6380 n3         1 MRV      -0.700600
     14 C2           2.0520     0.9030     0.6810 c5         1 MRV       0.161000
     15 C20          5.7790    -2.6860     0.8290 c3         1 MRV      -0.084100
     16 C21         -5.6820     1.1660    -1.5400 c6         1 MRV      -0.065400
     17 C22         -5.1190     0.6850     0.8640 c6         1 MRV      -0.065400
     18 C23         -6.5200     2.3660    -1.1070 c6         1 MRV      -0.127400
     19 C24         -5.9600     1.8800     1.3040 c6         1 MRV      -0.127400
     20 C25         -2.5760    -2.5870     1.4230 ca         1 MRV      -0.113500
     21 C26         -1.8920    -3.9350    -0.4340 ca         1 MRV      -0.113500
     22 C27         -2.9520    -3.7300     2.1150 ca         1 MRV      -0.126500
     23 C28         -2.2640    -5.0820     0.2560 ca         1 MRV      -0.126500
     24 C29         -2.7960    -4.9820     1.5350 ca         1 MRV      -0.122000
     25 C3           2.4680     1.2860    -1.5190 c5         1 MRV       0.161000
     26 N3           7.6510    -0.3070     0.4090 nc         1 MRV      -0.367000
     27 C4           6.3840    -0.3780     0.1130 cd         1 MRV       0.391800
     28 N4           7.9440     0.9800     0.7190 nc         1 MRV      -0.361000
     29 N5          -2.4750    -0.3230    -0.4280 ns         1 MRV      -0.579900
     30 C5           3.5070     0.6350     1.0520 c6         1 MRV      -0.077900
     31 C6           3.9760     1.0750    -1.4230 c6         1 MRV      -0.077900
     32 C7           6.8490     1.6750     0.6070 cd         1 MRV       0.379800
     33 C8           1.7550     2.4100     0.5100 c5         1 MRV      -0.110900
     34 C9           2.0370     2.6700    -0.9830 c5         1 MRV      -0.110900
     35 H1           4.4340     2.3460     0.2100 h1         1 MRV       0.059700
     36 H2           0.3740    -0.1760    -2.0230 h1         1 MRV       0.035700
     37 H3          -0.1890     1.0000    -0.8540 h1         1 MRV       0.035700
     38 H4           4.6390    -1.4390    -0.4700 hc         1 MRV       0.058700
     39 H5           0.4780    -1.9260    -0.2500 hc         1 MRV       0.058700
     40 H6          -0.2020    -0.8070     0.9140 hc         1 MRV       0.058700
     41 H7          -1.5400    -1.6870    -1.6710 h1         1 MRV       0.074700
     42 H8           6.4080     3.6740    -0.0320 hc         1 MRV       0.055700
     43 H9           6.0050     3.3460     1.6530 hc         1 MRV       0.055700
     44 H10          7.6900     3.5240     1.1670 hc         1 MRV       0.055700
     45 H11         -3.9030     1.7840    -0.5160 hc         1 MRV       0.052700
     46 H12          5.7600    -3.0880    -1.9000 hc         1 MRV       0.042033
     47 H13          6.2130    -1.4580    -2.3990 hc         1 MRV       0.042033
     48 H14          7.3430    -2.4380    -1.4650 hc         1 MRV       0.042033
     49 H16          1.4140     0.4420     1.4350 h1         1 MRV       0.069700
     50 H17          6.8160    -2.9370     1.0530 hc         1 MRV       0.042033
     51 H18          5.3140    -2.3270     1.7480 hc         1 MRV       0.042033
     52 H19          5.2660    -3.6000     0.5290 hc         1 MRV       0.042033
     53 H20         -5.2780     1.3580    -2.5350 hc         1 MRV       0.063450
     54 H21         -6.3150     0.2800    -1.6240 hc         1 MRV       0.063450
     55 H22         -5.7200    -0.2290     0.8820 hc         1 MRV       0.063450
     56 H23         -4.3120     0.5450     1.5850 hc         1 MRV       0.063450
     57 H24         -7.3530     2.5220    -1.7970 hc         1 MRV       0.066950
     58 H25         -5.9090     3.2730    -1.1280 hc         1 MRV       0.066950
     59 H26         -5.3190     2.7610     1.3920 hc         1 MRV       0.066950
     60 H27         -6.4030     1.7000     2.2860 hc         1 MRV       0.066950
     61 H28         -2.7070    -1.6180     1.8910 ha         1 MRV       0.126000
     62 H29         -1.4840    -4.0200    -1.4350 ha         1 MRV       0.126000
     63 H30         -3.3690    -3.6420     3.1110 ha         1 MRV       0.131000
     64 H31         -2.1420    -6.0520    -0.2070 ha         1 MRV       0.131000
     65 H32         -3.0900    -5.8740     2.0730 ha         1 MRV       0.132000
     66 H33          2.1520     1.1260    -2.5520 h1         1 MRV       0.069700
     67 H34         -2.1970     0.4210     0.1910 hn         1 MRV       0.309500
     68 H35          3.6510    -0.4450     1.1060 hc         1 MRV       0.061950
     69 H36          3.7340     1.0410     2.0410 hc         1 MRV       0.061950
     70 H37          4.5050     1.7780    -2.0720 hc         1 MRV       0.061950
     71 H38          4.2040     0.0720    -1.7870 hc         1 MRV       0.061950
     72 H39          0.7150     2.6260     0.7580 hc         1 MRV       0.049700
     73 H40          2.3660     3.0260     1.1720 hc         1 MRV       0.049700
     74 H41          2.8060     3.4290    -1.1420 hc         1 MRV       0.049700
     75 H42          1.1410     3.0190    -1.4980 hc         1 MRV       0.049700
     76 C10          0.4250     0.0920    -0.9640 c3         1 MRV       0.163800
     77 C11          5.6950    -1.6470    -0.2900 c3         1 MRV      -0.087000
     78 C14          6.7240     3.1320     0.8600 c3         1 MRV      -0.122400
@<TRIPOS>BOND
     1     1    10 1   
     2     2     8 2   
     3     3     4 1   
     4     3    30 1   
     5     3    31 1   
     6     3    35 1   
     7     4    27 1   
     8     4    32 1   
     9     5     6 1   
    10     5    39 1   
    11     5    40 1   
    12     5    76 1   
    13     6     7 1   
    14     6    29 1   
    15     6    41 1   
    16     7    20 ar  
    17     7    21 ar  
    18     8     9 1   
    19     8    29 1   
    20     9    16 1   
    21     9    17 1   
    22     9    45 1   
    23    10    12 1   
    24    10    18 1   
    25    10    19 1   
    26    11    46 1   
    27    11    47 1   
    28    11    48 1   
    29    11    77 1   
    30    13    14 1   
    31    13    25 1   
    32    13    76 1   
    33    14    30 1   
    34    14    33 1   
    35    14    49 1   
    36    15    50 1   
    37    15    51 1   
    38    15    52 1   
    39    15    77 1   
    40    16    18 1   
    41    16    53 1   
    42    16    54 1   
    43    17    19 1   
    44    17    55 1   
    45    17    56 1   
    46    18    57 1   
    47    18    58 1   
    48    19    59 1   
    49    19    60 1   
    50    20    22 ar  
    51    20    61 1   
    52    21    23 ar  
    53    21    62 1   
    54    22    24 ar  
    55    22    63 1   
    56    23    24 ar  
    57    23    64 1   
    58    24    65 1   
    59    25    31 1   
    60    25    34 1   
    61    25    66 1   
    62    26    27 2   
    63    26    28 1   
    64    27    77 1   
    65    28    32 2   
    66    29    67 1   
    67    30    68 1   
    68    30    69 1   
    69    31    70 1   
    70    31    71 1   
    71    32    78 1   
    72    33    34 1   
    73    33    72 1   
    74    33    73 1   
    75    34    74 1   
    76    34    75 1   
    77    36    76 1   
    78    37    76 1   
    79    38    77 1   
    80    42    78 1   
    81    43    78 1   
    82    44    78 1   
@<TRIPOS>SUBSTRUCTURE
     1 MRV         1 TEMP              0 ****  ****    0 ROOT
