@<TRIPOS>MOLECULE
MRX
   35    37     1     0     0
SMALL
bcc


@<TRIPOS>ATOM
      1 BR           4.0020     0.9530     0.2700 br         1 MRX      -0.093100
      2 C6           2.5330    -0.2160     0.5010 ca         1 MRX      -0.032900
      3 C1           1.3150     0.1300    -0.0430 ca         1 MRX      -0.056000
      4 C5           2.7340    -1.4040     1.2190 ca         1 MRX      -0.088000
      5 C4           1.6920    -2.2880     1.4000 ca         1 MRX      -0.134000
      6 C3           0.4560    -1.9500     0.8580 ca         1 MRX      -0.052200
      7 N9          -0.7250    -2.6390     0.8720 na         1 MRX      -0.137400
      8 C8          -1.6790    -1.9380     0.2180 cc         1 MRX      -0.008300
      9 C18         -3.0800    -2.4740     0.1210 c          1 MRX       0.703300
     10 N20         -3.2470    -3.3820    -0.8380 nt         1 MRX      -0.648000
     11 O19         -3.9330    -2.1170     0.9130 o          1 MRX      -0.573100
     12 C7          -1.1320    -0.7650    -0.2400 cd         1 MRX      -0.346300
     13 C2           0.2460    -0.7520     0.1500 ca         1 MRX      -0.027800
     14 S10         -1.9780     0.4640    -1.1390 sy         1 MRX       1.353800
     15 O16         -1.0290     1.0280    -2.0870 o          1 MRX      -0.618300
     16 O17         -3.2150    -0.1390    -1.6110 o          1 MRX      -0.618300
     17 N11         -2.3910     1.6610    -0.1150 n3         1 MRX      -0.760500
     18 C15         -1.3930     2.6220     0.3660 c5         1 MRX       0.210300
     19 C14         -2.2070     3.4420     1.3520 c5         1 MRX      -0.087400
     20 C13         -3.0830     2.3870     2.0200 c5         1 MRX      -0.087400
     21 C12         -3.4540     1.4360     0.8820 c5         1 MRX       0.210300
     22 H1           1.1910     1.0430    -0.6080 ha         1 MRX       0.171000
     23 H5           3.7070    -1.6380     1.6290 ha         1 MRX       0.150000
     24 H4           1.8390    -3.2110     1.9450 ha         1 MRX       0.140000
     25 HN9         -0.8650    -3.5390     1.3060 hn         1 MRX       0.309700
     26 H201        -2.5170    -3.6070    -1.4930 hn         1 MRX       0.328000
     27 H202        -4.1450    -3.8200    -0.9760 hn         1 MRX       0.328000
     28 H151        -0.5640     2.1280     0.8850 h1         1 MRX       0.061450
     29 H152        -0.9890     3.2100    -0.4560 h1         1 MRX       0.061450
     30 H141        -1.5700     3.9800     2.0540 hc         1 MRX       0.054200
     31 H142        -2.8180     4.1730     0.8190 hc         1 MRX       0.054200
     32 H131        -2.5080     1.8540     2.7800 hc         1 MRX       0.054200
     33 H132        -3.9650     2.8030     2.5040 hc         1 MRX       0.054200
     34 H121        -4.4220     1.6830     0.4440 h1         1 MRX       0.061450
     35 H122        -3.4910     0.3990     1.2200 h1         1 MRX       0.061450
@<TRIPOS>BOND
     1     1     2 1   
     2     2     3 ar  
     3     2     4 ar  
     4     3    13 ar  
     5     3    22 1   
     6     4     5 ar  
     7     4    23 1   
     8     5     6 ar  
     9     5    24 1   
    10     6     7 1   
    11     6    13 ar  
    12     7     8 1   
    13     7    25 1   
    14     8     9 1   
    15     8    12 2   
    16     9    10 1   
    17     9    11 2   
    18    10    26 1   
    19    10    27 1   
    20    12    13 1   
    21    12    14 1   
    22    14    15 2   
    23    14    16 2   
    24    14    17 1   
    25    17    18 1   
    26    17    21 1   
    27    18    19 1   
    28    18    28 1   
    29    18    29 1   
    30    19    20 1   
    31    19    30 1   
    32    19    31 1   
    33    20    21 1   
    34    20    32 1   
    35    20    33 1   
    36    21    34 1   
    37    21    35 1   
@<TRIPOS>SUBSTRUCTURE
     1 MRX         1 TEMP              0 ****  ****    0 ROOT
