@<TRIPOS>MOLECULE
MRX
   35    37     1     0     0
SMALL
No Charge or Current Charge


@<TRIPOS>ATOM
      1 Br           4.1180     1.2080    -0.0950 br         1 MRX      -0.093100
      2 C6           2.6730    -0.0290     0.0990 ca         1 MRX      -0.032900
      3 C1           1.3810     0.3330    -0.3390 ca         1 MRX      -0.038000
      4 C5           2.9080    -1.2940     0.6830 ca         1 MRX      -0.070000
      5 C4           1.8460    -2.2080     0.8380 ca         1 MRX      -0.116000
      6 C3           0.5750    -1.8190     0.3930 ca         1 MRX      -0.052200
      7 N9          -0.6010    -2.5330     0.4570 na         1 MRX      -0.187700
      8 C8          -1.6850    -1.7880    -0.0710 cc         1 MRX      -0.008300
      9 C18         -3.1290    -2.2220    -0.1280 c          1 MRX       0.636300
     10 N20         -3.3740    -3.4880     0.2860 nt         1 MRX      -0.581000
     11 O19         -4.0810    -1.5520    -0.4800 o          1 MRX      -0.573100
     12 C7          -1.0860    -0.5750    -0.4930 cd         1 MRX      -0.346300
     13 C2           0.3410    -0.6030    -0.1780 ca         1 MRX      -0.027800
     14 S10         -1.8510     0.8290    -1.3520 sy         1 MRX       1.212200
     15 O16         -0.8370     1.6520    -2.0200 o          1 MRX      -0.547500
     16 O17         -3.0660     0.4380    -2.0720 o          1 MRX      -0.547500
     17 N11         -2.3480     1.7300     0.0050 n3         1 MRX      -0.760500
     18 C15         -1.3460     2.1240     1.0100 c5         1 MRX       0.210300
     19 C14         -2.1920     2.9940     1.9750 c5         1 MRX      -0.087400
     20 C13         -3.6270     2.3930     1.8560 c5         1 MRX      -0.087400
     21 C12         -3.4630     1.2400     0.8320 c5         1 MRX       0.210300
     22 H1           1.2190     1.3130    -0.7740 ha         1 MRX       0.153000
     23 H5           3.9070    -1.5620     1.0190 ha         1 MRX       0.132000
     24 H4           2.0100    -3.1820     1.2920 ha         1 MRX       0.122000
     25 HN9         -0.6700    -3.4600     0.8590 hn         1 MRX       0.360000
     26 H201        -2.6260    -4.0950     0.5760 hn         1 MRX       0.328000
     27 H202        -4.3250    -3.8240     0.2740 hn         1 MRX       0.328000
     28 H151        -0.9270     1.2520     1.5320 h1         1 MRX       0.061450
     29 H152        -0.5110     2.6930     0.5770 h1         1 MRX       0.061450
     30 H141        -1.8030     2.9570     2.9990 hc         1 MRX       0.054200
     31 H142        -2.1830     4.0440     1.6630 hc         1 MRX       0.054200
     32 H131        -4.0120     2.0300     2.8160 hc         1 MRX       0.054200
     33 H132        -4.3330     3.1450     1.4870 hc         1 MRX       0.054200
     34 H121        -4.3830     1.0780     0.2550 h1         1 MRX       0.061450
     35 H122        -3.2060     0.2990     1.3400 h1         1 MRX       0.061450
@<TRIPOS>BOND
     1     1     2 1   
     2     2     3 ar  
     3     2     4 ar  
     4     3    13 ar  
     5     3    22 1   
     6     4     5 ar  
     7     4    23 1   
     8     5     6 ar  
     9     5    24 1   
    10     6     7 1   
    11     6    13 ar  
    12     7     8 1   
    13     7    25 1   
    14     8     9 1   
    15     8    12 2   
    16     9    10 1   
    17     9    11 2   
    18    10    26 1   
    19    10    27 1   
    20    12    13 1   
    21    12    14 1   
    22    14    15 2   
    23    14    16 2   
    24    14    17 1   
    25    17    18 1   
    26    17    21 1   
    27    18    19 1   
    28    18    28 1   
    29    18    29 1   
    30    19    20 1   
    31    19    30 1   
    32    19    31 1   
    33    20    21 1   
    34    20    32 1   
    35    20    33 1   
    36    21    34 1   
    37    21    35 1   
@<TRIPOS>SUBSTRUCTURE
     1 MRX         1 TEMP              0 ****  ****    0 ROOT
