@<TRIPOS>MOLECULE
MRY
   18    17     1     0     0
SMALL
bcc


@<TRIPOS>ATOM
      1 OAB          0.0540    -0.1680     3.0290 oh         1 MRY      -0.586800
      2 CAA          0.5520     0.3340     1.8100 c3         1 MRY       0.108400
      3 CAC         -0.2920    -0.2210     0.6730 c3         1 MRY       0.109100
      4 OAD         -1.6540     0.1120     0.8300 oh         1 MRY      -0.577300
      5 CAE          0.2430     0.2340    -0.6950 c3         1 MRY       0.109100
      6 OAF          1.6060    -0.0970    -0.8510 oh         1 MRY      -0.577300
      7 CAG         -0.6000    -0.3230    -1.8320 c3         1 MRY       0.108400
      8 OAH         -0.1040     0.1810    -3.0500 oh         1 MRY      -0.586800
      9 HAB          0.6550     0.1050     3.7280 ho         1 MRY       0.404500
     10 HAA1         1.5980     0.0520     1.6560 h1         1 MRY       0.029700
     11 HAA2         0.5120     1.4340     1.7780 h1         1 MRY       0.029700
     12 HAC         -0.2530    -1.3170     0.7140 h1         1 MRY       0.080700
     13 HAD         -1.7350     1.0720     0.8490 ho         1 MRY       0.401000
     14 HAE          0.2020     1.3300    -0.7360 h1         1 MRY       0.080700
     15 HAF          1.6890    -1.0570    -0.8730 ho         1 MRY       0.401000
     16 HAG1        -1.6460    -0.0450    -1.6770 h1         1 MRY       0.029700
     17 HAG2        -0.5560    -1.4230    -1.8000 h1         1 MRY       0.029700
     18 HAH         -0.7040    -0.0930    -3.7490 ho         1 MRY       0.404500
@<TRIPOS>BOND
     1     1     2 1   
     2     1     9 1   
     3     2     3 1   
     4     2    10 1   
     5     2    11 1   
     6     3     4 1   
     7     3     5 1   
     8     3    12 1   
     9     4    13 1   
    10     5     6 1   
    11     5     7 1   
    12     5    14 1   
    13     6    15 1   
    14     7     8 1   
    15     7    16 1   
    16     7    17 1   
    17     8    18 1   
@<TRIPOS>SUBSTRUCTURE
     1 MRY         1 TEMP              0 ****  ****    0 ROOT
