@<TRIPOS>MOLECULE
MRY
   18    17     1     0     0
SMALL
No Charge or Current Charge


@<TRIPOS>ATOM
      1 OAB         -0.1580     0.2420     3.1020 oh         1 MRY      -0.709000
      2 CAA          0.5510     0.3990     1.8560 c3         1 MRY       0.131600
      3 CAC         -0.3100    -0.1650     0.6940 c3         1 MRY       0.132300
      4 OAD         -1.6350     0.3700     0.8520 oh         1 MRY      -0.699500
      5 CAE          0.2620     0.1770    -0.7160 c3         1 MRY       0.132300
      6 OAF          1.5870    -0.3580    -0.8740 oh         1 MRY      -0.699500
      7 CAG         -0.5990    -0.3860    -1.8780 c3         1 MRY       0.131600
      8 OAH          0.1100    -0.2300    -3.1240 oh         1 MRY      -0.709000
      9 HAB          0.4590     0.5160     3.8230 ho         1 MRY       0.503500
     10 HAA1         1.5090    -0.1380     1.8890 h1         1 MRY       0.029700
     11 HAA2         0.7670     1.4600     1.6700 h1         1 MRY       0.029700
     12 HAC         -0.3350    -1.2600     0.7960 h1         1 MRY       0.080700
     13 HAD         -1.7080     0.4880     1.8320 ho         1 MRY       0.500000
     14 HAE          0.2860     1.2720    -0.8180 h1         1 MRY       0.080700
     15 HAF          1.6600    -0.4760    -1.8540 ho         1 MRY       0.500000
     16 HAG1        -1.5570     0.1500    -1.9110 h1         1 MRY       0.029700
     17 HAG2        -0.8150    -1.4480    -1.6920 h1         1 MRY       0.029700
     18 HAH         -0.5070    -0.5040    -3.8450 ho         1 MRY       0.503500
@<TRIPOS>BOND
     1     1     2 1   
     2     1     9 1   
     3     2     3 1   
     4     2    10 1   
     5     2    11 1   
     6     3     4 1   
     7     3     5 1   
     8     3    12 1   
     9     4    13 1   
    10     5     6 1   
    11     5     7 1   
    12     5    14 1   
    13     6    15 1   
    14     7     8 1   
    15     7    16 1   
    16     7    17 1   
    17     8    18 1   
@<TRIPOS>SUBSTRUCTURE
     1 MRY         1 TEMP              0 ****  ****    0 ROOT
