@<TRIPOS>MOLECULE
MRZ
   22    22     1     0     0
SMALL
No Charge or Current Charge


@<TRIPOS>ATOM
      1 C1          -2.5640     0.0570    -0.0050 c6         1 MRZ      -0.074400
      2 C6          -1.7420    -1.1150     0.5740 c6         1 MRZ      -0.085400
      3 C5          -0.3550    -1.2190    -0.1090 c6         1 MRZ       0.216800
      4 N4           0.4030     0.0630    -0.0330 nh         1 MRZ      -0.756600
      5 C3          -0.3630     1.2210    -0.5710 c6         1 MRZ       0.216800
      6 C2          -1.7510     1.3650     0.1020 c6         1 MRZ      -0.085400
      7 C7           1.7280     0.0360    -0.2610 c2         1 MRZ       0.796100
      8 N8           2.3970     0.6950     0.6580 nv         1 MRZ      -1.062200
      9 N9           2.2600    -0.6300    -1.1750 n2         1 MRZ      -0.895100
     10 H1          -2.8140    -0.1440    -1.0560 hc         1 MRZ       0.040700
     11 H2          -3.5160     0.1560     0.5360 hc         1 MRZ       0.040700
     12 H3          -1.6070    -0.9750     1.6550 hc         1 MRZ       0.045950
     13 H4          -2.2890    -2.0580     0.4460 hc         1 MRZ       0.045950
     14 H5           0.2120    -2.0190     0.3900 h1         1 MRZ       0.047450
     15 H6          -0.4830    -1.5210    -1.1600 h1         1 MRZ       0.047450
     16 H7           0.1960     2.1540    -0.4040 h1         1 MRZ       0.047450
     17 H8          -0.4880     1.1140    -1.6590 h1         1 MRZ       0.047450
     18 H9          -2.3050     2.1910    -0.3630 hc         1 MRZ       0.045950
     19 H10         -1.6180     1.6330     1.1590 hc         1 MRZ       0.045950
     20 H11          1.7480     0.9730     1.3800 hn         1 MRZ       0.449500
     21 H12          3.1930     0.1800     1.0080 hn         1 MRZ       0.449500
     22 H13          3.2710    -0.4750    -1.1040 hn         1 MRZ       0.375400
@<TRIPOS>BOND
     1     1     2 1   
     2     1     6 1   
     3     1    10 1   
     4     1    11 1   
     5     2     3 1   
     6     2    12 1   
     7     2    13 1   
     8     3     4 1   
     9     3    14 1   
    10     3    15 1   
    11     4     5 1   
    12     4     7 1   
    13     5     6 1   
    14     5    16 1   
    15     5    17 1   
    16     6    18 1   
    17     6    19 1   
    18     7     8 1   
    19     7     9 2   
    20     8    20 1   
    21     8    21 1   
    22     9    22 1   
@<TRIPOS>SUBSTRUCTURE
     1 MRZ         1 TEMP              0 ****  ****    0 ROOT
