@<TRIPOS>MOLECULE
MRZ
   22    22     1     0     0
SMALL
bcc


@<TRIPOS>ATOM
      1 C1          -2.5680     0.0660    -0.0010 c6         1 MRZ      -0.074400
      2 C6          -1.7930    -1.1930     0.3630 c6         1 MRZ      -0.085400
      3 C5          -0.4320    -1.2310    -0.3170 c6         1 MRZ       0.216800
      4 N4           0.3250    -0.0260    -0.0260 nh         1 MRZ      -0.756600
      5 C3          -0.3680     1.1970    -0.4120 c6         1 MRZ       0.216800
      6 C2          -1.7190     1.2990     0.2780 c6         1 MRZ      -0.085400
      7 C7           1.6990    -0.1050    -0.0590 c2         1 MRZ       0.796100
      8 N8           2.3570     1.0800     0.2100 nv         1 MRZ      -0.951800
      9 N9           2.2830    -1.2120    -0.3450 n2         1 MRZ      -0.895100
     10 H1          -2.8310     0.0390    -1.0630 hc         1 MRZ       0.040700
     11 H2          -3.5070     0.1130     0.5540 hc         1 MRZ       0.040700
     12 H3          -1.6530    -1.2400     1.4480 hc         1 MRZ       0.045950
     13 H4          -2.3520    -2.0870     0.0770 hc         1 MRZ       0.045950
     14 H5           0.1360    -2.0920     0.0250 h1         1 MRZ       0.047450
     15 H6          -0.5660    -1.3490    -1.4030 h1         1 MRZ       0.047450
     16 H7           0.2320     2.0700    -0.1690 h1         1 MRZ       0.047450
     17 H8          -0.5150     1.2140    -1.5020 h1         1 MRZ       0.047450
     18 H9          -2.2230     2.2040    -0.0680 hc         1 MRZ       0.045950
     19 H10         -1.5650     1.4100     1.3550 hc         1 MRZ       0.045950
     20 H11          1.9420     1.6780     0.9070 hn         1 MRZ       0.394300
     21 H12          3.3480     0.9770     0.3630 hn         1 MRZ       0.394300
     22 H13          3.2840    -1.1300    -0.2080 hn         1 MRZ       0.375400
@<TRIPOS>BOND
     1     1     2 1   
     2     1     6 1   
     3     1    10 1   
     4     1    11 1   
     5     2     3 1   
     6     2    12 1   
     7     2    13 1   
     8     3     4 1   
     9     3    14 1   
    10     3    15 1   
    11     4     5 1   
    12     4     7 1   
    13     5     6 1   
    14     5    16 1   
    15     5    17 1   
    16     6    18 1   
    17     6    19 1   
    18     7     8 1   
    19     7     9 2   
    20     8    20 1   
    21     8    21 1   
    22     9    22 1   
@<TRIPOS>SUBSTRUCTURE
     1 MRZ         1 TEMP              0 ****  ****    0 ROOT
