@<TRIPOS>MOLECULE
MS0
   24    25     1     0     0
SMALL
bcc


@<TRIPOS>ATOM
      1 O1           0.0200     2.4010    -0.1280 os         1 MS0      -0.198200
      2 C2          -0.6980     1.2640    -0.0250 ca         1 MS0       0.089100
      3 C3           0.1360     0.2000     0.3250 ca         1 MS0      -0.113800
      4 C4           1.4620     0.7550     0.4460 cc         1 MS0      -0.015400
      5 C5           1.3150     2.0650     0.1680 cd         1 MS0      -0.097900
      6 C7           2.7050     0.0440     0.8430 c3         1 MS0      -0.170200
      7 C10          3.1890    -1.0410    -0.1480 c          1 MS0       0.932600
      8 O11          4.2300    -1.6390     0.1900 o          1 MS0      -0.832300
      9 O12          2.5180    -1.2260    -1.1780 o          1 MS0      -0.832300
     10 C14         -0.4290    -1.0610     0.4710 ca         1 MS0      -0.003000
     11 C16         -1.7930    -1.2210     0.2810 ca         1 MS0      -0.255000
     12 C18         -2.6050    -0.1290    -0.0690 ca         1 MS0       0.136100
     13 C19         -2.0580     1.1430    -0.2310 ca         1 MS0      -0.188000
     14 O21         -3.9360    -0.2220    -0.2720 os         1 MS0      -0.332900
     15 C22         -4.5610    -1.4800    -0.1180 c3         1 MS0       0.133700
     16 H5           2.0270     2.8760     0.1380 h4         1 MS0       0.172000
     17 H7           3.5130     0.7670     0.9890 hc         1 MS0       0.033200
     18 H7A          2.5580    -0.4320     1.8190 hc         1 MS0       0.033200
     19 H14          0.1790    -1.9160     0.7330 ha         1 MS0       0.153000
     20 H16         -2.2200    -2.2070     0.4030 ha         1 MS0       0.121000
     21 H19         -2.6790     1.9880    -0.5010 ha         1 MS0       0.142000
     22 H22         -4.1740    -2.2200    -0.8230 h1         1 MS0       0.030700
     23 H22A        -4.4530    -1.8700     0.8970 h1         1 MS0       0.030700
     24 H22B        -5.6180    -1.3250    -0.3220 h1         1 MS0       0.030700
@<TRIPOS>BOND
     1     1     2 1   
     2     1     5 1   
     3     2     3 ar  
     4     2    13 ar  
     5     3     4 1   
     6     3    10 ar  
     7     4     5 2   
     8     4     6 1   
     9     5    16 1   
    10     6     7 1   
    11     6    17 1   
    12     6    18 1   
    13     7     8 1   
    14     7     9 1   
    15    10    11 ar  
    16    10    19 1   
    17    11    12 ar  
    18    11    20 1   
    19    12    13 ar  
    20    12    14 1   
    21    13    21 1   
    22    14    15 1   
    23    15    22 1   
    24    15    23 1   
    25    15    24 1   
@<TRIPOS>SUBSTRUCTURE
     1 MS0         1 TEMP              0 ****  ****    0 ROOT
