@<TRIPOS>MOLECULE
MS0
   24    25     1     0     0
SMALL
No Charge or Current Charge


@<TRIPOS>ATOM
      1 O1           0.0550     2.3780    -0.2880 os         1 MS0      -0.198200
      2 C2          -0.6930     1.2600    -0.1020 ca         1 MS0       0.089100
      3 C3           0.1200     0.2410     0.3290 ca         1 MS0      -0.113800
      4 C4           1.4780     0.7510     0.4210 cc         1 MS0      -0.015400
      5 C5           1.3600     2.0790     0.0240 cd         1 MS0      -0.147900
      6 C7           2.7140     0.0110     0.8590 c3         1 MS0      -0.170200
      7 C10          3.3090    -0.8390    -0.2750 c          1 MS0       0.722000
      8 O11          2.8910    -1.9790    -0.4210 o          1 MS0      -0.727000
      9 O12          4.0850    -0.3010    -1.0510 o          1 MS0      -0.727000
     10 C14         -0.4000    -1.0320     0.5960 ca         1 MS0       0.015000
     11 C16         -1.7880    -1.2320     0.4120 ca         1 MS0      -0.237000
     12 C18         -2.6220    -0.1680    -0.0330 ca         1 MS0       0.136100
     13 C19         -2.0670     1.1000    -0.2960 ca         1 MS0      -0.170000
     14 O21         -3.9790    -0.3240    -0.2250 os         1 MS0      -0.356100
     15 C22         -4.6480    -1.5760     0.0120 c3         1 MS0       0.156900
     16 H5           2.1030     2.8650    -0.0660 h4         1 MS0       0.222000
     17 H7           3.4370     0.7790     1.1610 hc         1 MS0       0.033200
     18 H7A          2.4080    -0.6360     1.6890 hc         1 MS0       0.033200
     19 H14          0.2440    -1.8410     0.9340 ha         1 MS0       0.135000
     20 H16         -2.1960    -2.2170     0.6180 ha         1 MS0       0.103000
     21 H19         -2.6840     1.9260    -0.6370 ha         1 MS0       0.124000
     22 H22         -4.2420    -2.3640    -0.6340 h1         1 MS0       0.030700
     23 H22A        -4.5360    -1.8850     1.0590 h1         1 MS0       0.030700
     24 H22B        -5.7200    -1.4800    -0.2010 h1         1 MS0       0.030700
@<TRIPOS>BOND
     1     1     2 1   
     2     1     5 1   
     3     2     3 ar  
     4     2    13 ar  
     5     3     4 1   
     6     3    10 ar  
     7     4     5 2   
     8     4     6 1   
     9     5    16 1   
    10     6     7 1   
    11     6    17 1   
    12     6    18 1   
    13     7     8 1   
    14     7     9 1   
    15    10    11 ar  
    16    10    19 1   
    17    11    12 ar  
    18    11    20 1   
    19    12    13 ar  
    20    12    14 1   
    21    13    21 1   
    22    14    15 1   
    23    15    22 1   
    24    15    23 1   
    25    15    24 1   
@<TRIPOS>SUBSTRUCTURE
     1 MS0         1 TEMP              0 ****  ****    0 ROOT
