@<TRIPOS>MOLECULE
MS2
   37    38     1     0     0
SMALL
No Charge or Current Charge


@<TRIPOS>ATOM
      1 C            5.4290     0.8140     0.9120 c3         1 MS2      -0.077100
      2 Br1         -5.7110     1.0380    -0.0870 br         1 MS2      -0.094100
      3 C1          -4.0550     0.1120     0.1530 ca         1 MS2      -0.012900
      4 C2A         -3.6080    -0.2010     1.4470 ca         1 MS2      -0.085500
      5 C3A         -2.3900    -0.8810     1.6230 ca         1 MS2      -0.098000
      6 C4          -1.6130    -1.2550     0.5080 ca         1 MS2      -0.095300
      7 C3B         -2.0680    -0.9300    -0.7880 ca         1 MS2      -0.098000
      8 C2B         -3.2860    -0.2500    -0.9640 ca         1 MS2      -0.085500
      9 C5          -0.2850    -1.9790     0.7140 c3         1 MS2       0.167000
     10 C6          -0.2230    -3.3260    -0.0360 c3         1 MS2      -0.103100
     11 N1           0.8140    -1.1050     0.3200 ns         1 MS2      -0.503900
     12 C7           2.1160    -1.2340     0.7450 c          1 MS2       0.648100
     13 O1           2.4650    -2.1010     1.5320 o          1 MS2      -0.562100
     14 C8           3.0710    -0.2080     0.1960 cx         1 MS2      -0.180700
     15 C9A          2.8460     1.2710     0.4330 cx         1 MS2       0.280000
     16 Cl15         1.4310     1.8640     1.3600 cl         1 MS2      -0.178500
     17 Cl16         3.2350     2.4550    -0.8560 cl         1 MS2      -0.178500
     18 C17          3.9480     0.5460     1.1790 cx         1 MS2      -0.027700
     19 O9B          4.1890    -2.2920    -1.2750 o          1 MS2      -0.476000
     20 S9B          3.8270    -0.8330    -1.4250 s4         1 MS2       0.262400
     21 C12          2.3230    -0.7500    -2.4920 c3         1 MS2      -0.083800
     22 H1           5.6340     1.0410    -0.1400 hc         1 MS2       0.055700
     23 H2           5.7790     1.6650     1.5080 hc         1 MS2       0.055700
     24 H3           6.0330    -0.0590     1.1880 hc         1 MS2       0.055700
     25 H3A         -2.0520    -1.1150     2.6310 ha         1 MS2       0.120500
     26 H3B         -1.4800    -1.1990    -1.6630 ha         1 MS2       0.120500
     27 H2B         -3.6320    -0.0040    -1.9660 ha         1 MS2       0.132000
     28 H5          -0.1750    -2.1930     1.7860 h1         1 MS2       0.072700
     29 H61          0.7020    -3.8620     0.2070 hc         1 MS2       0.050033
     30 H62         -1.0690    -3.9610     0.2540 hc         1 MS2       0.050033
     31 H63         -0.2570    -3.1800    -1.1210 hc         1 MS2       0.050033
     32 H99          0.6030    -0.3190    -0.2800 hn         1 MS2       0.320500
     33 H17          3.7610     0.3630     2.2350 hc         1 MS2       0.113700
     34 H121         1.9120     0.2650    -2.4610 h1         1 MS2       0.084700
     35 H122         2.6180    -0.9980    -3.5190 h1         1 MS2       0.084700
     36 H123         1.5840    -1.4790    -2.1430 h1         1 MS2       0.084700
     37 H2A         -4.2030     0.0820     2.3120 ha         1 MS2       0.132000
@<TRIPOS>BOND
     1     1    18 1   
     2     1    22 1   
     3     1    23 1   
     4     1    24 1   
     5     2     3 1   
     6     3     4 ar  
     7     3     8 ar  
     8     4     5 ar  
     9     4    37 1   
    10     5     6 ar  
    11     5    25 1   
    12     6     7 ar  
    13     6     9 1   
    14     7     8 ar  
    15     7    26 1   
    16     8    27 1   
    17     9    10 1   
    18     9    11 1   
    19     9    28 1   
    20    10    29 1   
    21    10    30 1   
    22    10    31 1   
    23    11    12 1   
    24    11    32 1   
    25    12    13 2   
    26    12    14 1   
    27    14    15 1   
    28    14    18 1   
    29    14    20 1   
    30    15    16 1   
    31    15    17 1   
    32    15    18 1   
    33    18    33 1   
    34    19    20 2   
    35    20    21 1   
    36    21    34 1   
    37    21    35 1   
    38    21    36 1   
@<TRIPOS>SUBSTRUCTURE
     1 MS2         1 TEMP              0 ****  ****    0 ROOT
