@<TRIPOS>MOLECULE
MS2
   37    38     1     0     0
SMALL
bcc


@<TRIPOS>ATOM
      1 C            5.4440     0.6980     0.8590 c3         1 MS2      -0.077100
      2 BR1         -5.6730     0.9100    -0.1780 br         1 MS2      -0.094100
      3 C1          -4.0240     0.0320     0.1000 ca         1 MS2      -0.012900
      4 C2A         -3.5900    -0.2110     1.3930 ca         1 MS2      -0.103500
      5 C3A         -2.3750    -0.8560     1.5850 ca         1 MS2      -0.116000
      6 C4          -1.6000    -1.2650     0.5060 ca         1 MS2      -0.095300
      7 C3B         -2.0610    -1.0090    -0.7820 ca         1 MS2      -0.116000
      8 C2B         -3.2680    -0.3600    -0.9950 ca         1 MS2      -0.103500
      9 C5          -0.2840    -1.9670     0.7350 c3         1 MS2       0.167000
     10 C6          -0.2180    -3.3220     0.0370 c3         1 MS2      -0.103100
     11 N1           0.7950    -1.0880     0.2930 ns         1 MS2      -0.570900
     12 C7           2.0440    -1.1780     0.7670 c          1 MS2       0.715100
     13 O1           2.4150    -2.0070     1.5750 o          1 MS2      -0.562100
     14 C8           3.0150    -0.1740     0.1900 cx         1 MS2      -0.180700
     15 C9A          2.9120     1.2930     0.4660 cx         1 MS2       0.126800
     16 CL15         1.5600     1.8710     1.4170 cl         1 MS2      -0.101900
     17 CL16         3.3420     2.4240    -0.8020 cl         1 MS2      -0.101900
     18 C17          3.9780     0.5050     1.1370 cx         1 MS2      -0.027700
     19 O9B          3.9800    -2.1940    -1.2210 o          1 MS2      -0.449200
     20 S9B          3.7320    -0.7220    -1.3940 s4         1 MS2       0.235600
     21 C12          2.2950    -0.5760    -2.4710 c3         1 MS2      -0.083800
     22 H1           5.6640     0.9300    -0.1800 hc         1 MS2       0.055700
     23 H2           5.8220     1.5130     1.4740 hc         1 MS2       0.055700
     24 H3           5.9880    -0.2070     1.1280 hc         1 MS2       0.055700
     25 H3A         -2.0330    -1.0410     2.5950 ha         1 MS2       0.138500
     26 H3B         -1.4880    -1.3200    -1.6480 ha         1 MS2       0.138500
     27 H2B         -3.6060    -0.1720    -2.0050 ha         1 MS2       0.150000
     28 H5          -0.1620    -2.1240     1.8090 h1         1 MS2       0.072700
     29 H61          0.7350    -3.8090     0.2340 hc         1 MS2       0.050033
     30 H62         -1.0120    -3.9710     0.4090 hc         1 MS2       0.050033
     31 H63         -0.3380    -3.2230    -1.0420 hc         1 MS2       0.050033
     32 H99          0.5520    -0.2930    -0.2770 hn         1 MS2       0.320500
     33 H17          3.7680     0.2910     2.1810 hc         1 MS2       0.113700
     34 H121         1.8990     0.4380    -2.4560 h1         1 MS2       0.084700
     35 H122         2.6470    -0.8020    -3.4770 h1         1 MS2       0.084700
     36 H123         1.5370    -1.3010    -2.1830 h1         1 MS2       0.084700
     37 H2A         -4.1780     0.0930     2.2480 ha         1 MS2       0.150000
@<TRIPOS>BOND
     1     1    18 1   
     2     1    22 1   
     3     1    23 1   
     4     1    24 1   
     5     2     3 1   
     6     3     4 ar  
     7     3     8 ar  
     8     4     5 ar  
     9     4    37 1   
    10     5     6 ar  
    11     5    25 1   
    12     6     7 ar  
    13     6     9 1   
    14     7     8 ar  
    15     7    26 1   
    16     8    27 1   
    17     9    10 1   
    18     9    11 1   
    19     9    28 1   
    20    10    29 1   
    21    10    30 1   
    22    10    31 1   
    23    11    12 1   
    24    11    32 1   
    25    12    13 2   
    26    12    14 1   
    27    14    15 1   
    28    14    18 1   
    29    14    20 1   
    30    15    16 1   
    31    15    17 1   
    32    15    18 1   
    33    18    33 1   
    34    19    20 2   
    35    20    21 1   
    36    21    34 1   
    37    21    35 1   
    38    21    36 1   
@<TRIPOS>SUBSTRUCTURE
     1 MS2         1 TEMP              0 ****  ****    0 ROOT
