@<TRIPOS>MOLECULE
MS3
  108   111     1     0     0
SMALL
No Charge or Current Charge


@<TRIPOS>ATOM
      1 C01          0.8480    -4.7420    -3.3010 ca         1 MS3      -0.092300
      2 C02          1.3690    -4.9870    -4.5870 ca         1 MS3      -0.088500
      3 C03          0.5260    -5.4390    -5.6180 ca         1 MS3      -0.116000
      4 C04         -0.8420    -5.6480    -5.3690 ca         1 MS3      -0.103500
      5 C05         -1.3660    -5.4020    -4.0890 ca         1 MS3      -0.116000
      6 C06         -0.5240    -4.9500    -3.0580 ca         1 MS3      -0.088500
      7 C07         -0.0420     3.2800    -1.9320 ca         1 MS3      -0.092300
      8 C08         -0.5670     3.7990    -3.1320 ca         1 MS3      -0.088500
      9 C09          0.2410     4.5760    -3.9810 ca         1 MS3      -0.116000
     10 C10          1.5780     4.8380    -3.6360 ca         1 MS3      -0.103500
     11 C11          2.1070     4.3210    -2.4410 ca         1 MS3      -0.116000
     12 C12          1.3000     3.5450    -1.5920 ca         1 MS3      -0.088500
     13 O14         -0.4750     1.0620    -1.1490 os         1 MS3      -0.426500
     14 C15         -1.0450     0.1200    -0.2040 c3         1 MS3       0.073300
     15 C16         -0.2650    -1.2180    -0.3710 c3         1 MS3       0.142800
     16 C17          1.2950    -1.0390    -0.2980 c3         1 MS3       0.142800
     17 C18          2.1310    -2.2670    -0.7920 c3         1 MS3       0.073300
     18 C19          3.5960    -1.8470    -1.1530 c          1 MS3       0.572600
     19 O20          4.1730    -2.2040    -2.1730 o          1 MS3      -0.587600
     20 N21          4.1970    -0.9820    -0.2620 ns         1 MS3      -0.490900
     21 C22          5.5000    -0.3050    -0.4570 c3         1 MS3       0.034700
     22 C23          5.3050     1.1570    -0.9750 c3         1 MS3      -0.067700
     23 C24          4.5900     1.2120    -2.3470 c3         1 MS3      -0.091350
     24 C25          4.5930     2.0700     0.0540 c3         1 MS3      -0.091350
     25 C26          6.3470    -0.3640     0.8510 c          1 MS3       0.591100
     26 O27          5.9050    -0.7610     1.9230 o          1 MS3      -0.617100
     27 N28          7.6500     0.0710     0.7280 ns         1 MS3      -0.489900
     28 C29          8.5960     0.1970     1.8500 c3         1 MS3       0.055700
     29 O30          1.4400    -2.8720    -1.9180 os         1 MS3      -0.426500
     30 C31          1.7540    -4.2520    -2.1790 c3         1 MS3       0.211400
     31 O32          1.6840    -0.6980     1.0560 oh         1 MS3      -0.717000
     32 O33         -0.7050    -2.1970     0.6060 oh         1 MS3      -0.717000
     33 N36         -3.3630    -0.0630     0.6670 ns         1 MS3      -0.490900
     34 C37         -4.8360    -0.2380     0.6780 c3         1 MS3       0.034700
     35 C38         -5.2470    -1.7260     0.9230 c3         1 MS3      -0.067700
     36 C39         -4.8090    -2.6640    -0.2270 c3         1 MS3      -0.091350
     37 C40         -4.7670    -2.2680     2.2930 c3         1 MS3      -0.091350
     38 C41         -5.4840     0.7360     1.7090 c          1 MS3       0.591100
     39 O42         -4.8320     1.3970     2.5100 o          1 MS3      -0.617100
     40 N43         -6.8570     0.8160     1.6640 ns         1 MS3      -0.489900
     41 C44         -7.6830     1.6600     2.5430 c3         1 MS3       0.055700
     42 C45         -9.1930     1.4410     2.3870 ca         1 MS3       0.329800
     43 C46        -10.0870     1.9740     3.3360 ca         1 MS3      -0.148000
     44 C47        -11.4670     1.7660     3.1780 ca         1 MS3      -0.067500
     45 C48        -11.9000     1.0270     2.0660 ca         1 MS3      -0.162500
     46 C49        -10.9480     0.5280     1.1610 ca         1 MS3       0.344900
     47 N50         -9.6170     0.7270     1.3100 nb         1 MS3      -0.687000
     48 C51          8.4110     1.4920     2.6410 ca         1 MS3       0.329800
     49 C52          7.6180     1.5200     3.8050 ca         1 MS3      -0.148000
     50 C53          7.4550     2.7300     4.4990 ca         1 MS3      -0.067500
     51 C54          8.0990     3.8710     3.9940 ca         1 MS3      -0.162500
     52 C55          8.8720     3.7620     2.8260 ca         1 MS3       0.344900
     53 N56          9.0300     2.5970     2.1550 nb         1 MS3      -0.687000
     54 H2           2.4260    -4.8260    -4.7890 ha         1 MS3       0.118750
     55 H3           0.9320    -5.6270    -6.6090 ha         1 MS3       0.111250
     56 H4          -1.4940    -5.9970    -6.1670 ha         1 MS3       0.110000
     57 H5          -2.4250    -5.5610    -3.8950 ha         1 MS3       0.111250
     58 H6          -0.9370    -4.7580    -2.0690 ha         1 MS3       0.118750
     59 H8          -1.6000     3.5970    -3.4100 ha         1 MS3       0.118750
     60 H9          -0.1690     4.9740    -4.9060 ha         1 MS3       0.111250
     61 H10          2.2030     5.4380    -4.2930 ha         1 MS3       0.110000
     62 H11          3.1420     4.5210    -2.1730 ha         1 MS3       0.111250
     63 H12          1.7150     3.1450    -0.6700 ha         1 MS3       0.118750
     64 H131        -1.9640     2.5350    -1.2780 h1         1 MS3       0.039700
     65 H132        -0.7750     2.7730     0.0230 h1         1 MS3       0.039700
     66 H15         -0.9070     0.4900     0.8210 h1         1 MS3       0.045200
     67 H16         -0.5080    -1.5750    -1.3830 h1         1 MS3       0.126700
     68 H17          1.5550    -0.2140    -0.9780 h1         1 MS3       0.126700
     69 H18          2.1920    -2.9860     0.0360 h1         1 MS3       0.045200
     70 H21          3.6360    -0.7210     0.5460 hn         1 MS3       0.335000
     71 H22          6.0770    -0.8610    -1.2080 h1         1 MS3       0.090700
     72 H23          6.3040     1.5820    -1.1370 hc         1 MS3       0.050200
     73 H241         4.5940     2.2350    -2.7430 hc         1 MS3       0.040200
     74 H242         5.0960     0.5670    -3.0750 hc         1 MS3       0.040200
     75 H243         3.5450     0.8880    -2.2650 hc         1 MS3       0.040200
     76 H251         3.5830     1.7060     0.2740 hc         1 MS3       0.040200
     77 H252         5.1530     2.1180     0.9960 hc         1 MS3       0.040200
     78 H253         4.5090     3.0930    -0.3320 hc         1 MS3       0.040200
     79 H28          7.9440     0.3920    -0.1880 hn         1 MS3       0.337000
     80 H291         8.4780    -0.6620     2.5220 h1         1 MS3       0.063200
     81 H292         9.6180     0.1610     1.4510 h1         1 MS3       0.063200
     82 H311         2.8060    -4.3730    -2.4690 h1         1 MS3       0.039700
     83 H312         1.5780    -4.8640    -1.2850 h1         1 MS3       0.039700
     84 H32          1.4170    -1.4510     1.6310 ho         1 MS3       0.496500
     85 H33         -0.8320    -1.7390     1.4670 ho         1 MS3       0.496500
     86 H36         -2.9060     0.1250     1.5530 hn         1 MS3       0.335000
     87 H37         -5.2310     0.0680    -0.3000 h1         1 MS3       0.090700
     88 H38         -6.3440    -1.7620     0.9370 hc         1 MS3       0.050200
     89 H391        -3.7170    -2.7570    -0.2690 hc         1 MS3       0.040200
     90 H392        -5.2270    -3.6680    -0.0860 hc         1 MS3       0.040200
     91 H393        -5.1620    -2.2850    -1.1930 hc         1 MS3       0.040200
     92 H401        -5.1390    -1.6470     3.1160 hc         1 MS3       0.040200
     93 H402        -5.1350    -3.2880     2.4530 hc         1 MS3       0.040200
     94 H403        -3.6720    -2.2920     2.3470 hc         1 MS3       0.040200
     95 H43         -7.3410     0.2480     0.9750 hn         1 MS3       0.337000
     96 H441        -7.4040     1.4580     3.5860 h1         1 MS3       0.063200
     97 H442        -7.4560     2.7130     2.3330 h1         1 MS3       0.063200
     98 H46         -9.7100     2.5410     4.1830 ha         1 MS3       0.127000
     99 H47        -12.1790     2.1660     3.8970 ha         1 MS3       0.121500
    100 H48        -12.9570     0.8400     1.9010 ha         1 MS3       0.126000
    101 H49        -11.2590    -0.0480     0.2900 h4         1 MS3       0.020100
    102 H52          7.1320     0.6140     4.1570 ha         1 MS3       0.127000
    103 H53          6.8480     2.7810     5.4000 ha         1 MS3       0.121500
    104 H54          8.0030     4.8300     4.4950 ha         1 MS3       0.126000
    105 H55          9.3800     4.6330     2.4140 h4         1 MS3       0.020100
    106 C34         -2.5650    -0.0950    -0.4610 c          1 MS3       0.572600
    107 O35         -3.0440    -0.2070    -1.5830 o          1 MS3      -0.587600
    108 C13         -0.9040     2.4270    -1.0110 c3         1 MS3       0.211400
@<TRIPOS>BOND
     1     1     2 ar  
     2     1     6 ar  
     3     1    30 1   
     4     2     3 ar  
     5     2    54 1   
     6     3     4 ar  
     7     3    55 1   
     8     4     5 ar  
     9     4    56 1   
    10     5     6 ar  
    11     5    57 1   
    12     6    58 1   
    13     7     8 ar  
    14     7    12 ar  
    15     7   108 1   
    16     8     9 ar  
    17     8    59 1   
    18     9    10 ar  
    19     9    60 1   
    20    10    11 ar  
    21    10    61 1   
    22    11    12 ar  
    23    11    62 1   
    24    12    63 1   
    25    13    14 1   
    26    13   108 1   
    27    14    15 1   
    28    14    66 1   
    29    14   106 1   
    30    15    16 1   
    31    15    32 1   
    32    15    67 1   
    33    16    17 1   
    34    16    31 1   
    35    16    68 1   
    36    17    18 1   
    37    17    29 1   
    38    17    69 1   
    39    18    19 2   
    40    18    20 1   
    41    20    21 1   
    42    20    70 1   
    43    21    22 1   
    44    21    25 1   
    45    21    71 1   
    46    22    23 1   
    47    22    24 1   
    48    22    72 1   
    49    23    73 1   
    50    23    74 1   
    51    23    75 1   
    52    24    76 1   
    53    24    77 1   
    54    24    78 1   
    55    25    26 2   
    56    25    27 1   
    57    27    28 1   
    58    27    79 1   
    59    28    48 1   
    60    28    80 1   
    61    28    81 1   
    62    29    30 1   
    63    30    82 1   
    64    30    83 1   
    65    31    84 1   
    66    32    85 1   
    67    33    34 1   
    68    33    86 1   
    69    33   106 1   
    70    34    35 1   
    71    34    38 1   
    72    34    87 1   
    73    35    36 1   
    74    35    37 1   
    75    35    88 1   
    76    36    89 1   
    77    36    90 1   
    78    36    91 1   
    79    37    92 1   
    80    37    93 1   
    81    37    94 1   
    82    38    39 2   
    83    38    40 1   
    84    40    41 1   
    85    40    95 1   
    86    41    42 1   
    87    41    96 1   
    88    41    97 1   
    89    42    43 ar  
    90    42    47 ar  
    91    43    44 ar  
    92    43    98 1   
    93    44    45 ar  
    94    44    99 1   
    95    45    46 ar  
    96    45   100 1   
    97    46    47 ar  
    98    46   101 1   
    99    48    49 ar  
   100    48    53 ar  
   101    49    50 ar  
   102    49   102 1   
   103    50    51 ar  
   104    50   103 1   
   105    51    52 ar  
   106    51   104 1   
   107    52    53 ar  
   108    52   105 1   
   109    64   108 1   
   110    65   108 1   
   111   106   107 2   
@<TRIPOS>SUBSTRUCTURE
     1 MS3         1 TEMP              0 ****  ****    0 ROOT
