@<TRIPOS>MOLECULE
MS3
  108   111     1     0     0
SMALL
abcg2


@<TRIPOS>ATOM
      1 C01          0.4330    -4.6090    -2.5830 ca         1 MS3      -0.092300
      2 C02          0.6600    -5.3290    -3.7500 ca         1 MS3      -0.088500
      3 C03         -0.3980    -5.9020    -4.4480 ca         1 MS3      -0.116000
      4 C04         -1.6970    -5.7510    -3.9850 ca         1 MS3      -0.103500
      5 C05         -1.9330    -5.0310    -2.8180 ca         1 MS3      -0.116000
      6 C06         -0.8760    -4.4650    -2.1230 ca         1 MS3      -0.088500
      7 C07         -0.1580     3.6630    -1.7310 ca         1 MS3      -0.092300
      8 C08         -0.5850     4.6400    -2.6220 ca         1 MS3      -0.088500
      9 C09          0.3240     5.5220    -3.1950 ca         1 MS3      -0.116000
     10 C10          1.6730     5.4260    -2.8860 ca         1 MS3      -0.103500
     11 C11          2.1090     4.4470    -1.9990 ca         1 MS3      -0.116000
     12 C12          1.1990     3.5730    -1.4250 ca         1 MS3      -0.088500
     13 O14         -0.7060     1.3950    -1.3550 os         1 MS3      -0.426500
     14 C15         -1.1400     0.4380    -0.4400 c3         1 MS3       0.073300
     15 C16         -0.3160    -0.8380    -0.6800 c3         1 MS3       0.142800
     16 C17          1.1900    -0.5520    -0.6460 c3         1 MS3       0.142800
     17 C18          2.0200    -1.8370    -0.8830 c3         1 MS3       0.073300
     18 C19          3.4760    -1.5180    -1.2710 c          1 MS3       0.572600
     19 O20          3.9740    -1.9990    -2.2750 o          1 MS3      -0.587600
     20 N21          4.1280    -0.7050    -0.4250 ns         1 MS3      -0.490900
     21 C22          5.4760    -0.2430    -0.6170 c3         1 MS3       0.034700
     22 C23          5.5350     1.2180    -1.1220 c3         1 MS3      -0.067700
     23 C24          4.8260     1.3570    -2.4630 c3         1 MS3      -0.091350
     24 C25          4.9720     2.2080    -0.1070 c3         1 MS3      -0.091350
     25 C26          6.2370    -0.3820     0.6990 c          1 MS3       0.591100
     26 O27          5.6670    -0.4970     1.7730 o          1 MS3      -0.617100
     27 N28          7.5720    -0.3380     0.5860 ns         1 MS3      -0.489900
     28 C29          8.4240    -0.2540     1.7450 c3         1 MS3       0.055700
     29 O30          1.4150    -2.5710    -1.8990 os         1 MS3      -0.426500
     30 C31          1.5680    -3.9750    -1.8310 c3         1 MS3       0.211400
     31 O32          1.5820     0.0770     0.5570 oh         1 MS3      -0.717000
     32 O33         -0.6940    -1.8460     0.2250 oh         1 MS3      -0.717000
     33 N36         -3.3240    -0.0980     0.4630 ns         1 MS3      -0.490900
     34 C37         -4.7180    -0.4610     0.4880 c3         1 MS3       0.034700
     35 C38         -4.9400    -1.9760     0.7060 c3         1 MS3      -0.067700
     36 C39         -4.3480    -2.7860    -0.4430 c3         1 MS3      -0.091350
     37 C40         -4.3890    -2.4590     2.0430 c3         1 MS3      -0.091350
     38 C41         -5.4120     0.3540     1.5770 c          1 MS3       0.591100
     39 O42         -4.7900     0.8930     2.4830 o          1 MS3      -0.617100
     40 N43         -6.7430     0.3980     1.4760 ns         1 MS3      -0.489900
     41 C44         -7.5760     1.0770     2.4320 c3         1 MS3       0.055700
     42 C45         -9.0300     0.9360     2.0600 ca         1 MS3       0.329800
     43 C46        -10.0120     1.4780     2.8850 ca         1 MS3      -0.148000
     44 C47        -11.3370     1.3440     2.5150 ca         1 MS3      -0.067500
     45 C48        -11.6430     0.6740     1.3360 ca         1 MS3      -0.162500
     46 C49        -10.5980     0.1680     0.5850 ca         1 MS3       0.344900
     47 N50         -9.3210     0.2960     0.9380 nb         1 MS3      -0.687000
     48 C51          8.3010     1.0620     2.4760 ca         1 MS3       0.329800
     49 C52          8.2510     1.1020     3.8640 ca         1 MS3      -0.148000
     50 C53          8.1710     2.3330     4.4970 ca         1 MS3      -0.067500
     51 C54          8.1350     3.4810     3.7200 ca         1 MS3      -0.162500
     52 C55          8.1850     3.3370     2.3420 ca         1 MS3       0.344900
     53 N56          8.2700     2.1620     1.7310 nb         1 MS3      -0.687000
     54 H2           1.6710    -5.4440    -4.1200 ha         1 MS3       0.118750
     55 H3          -0.2060    -6.4600    -5.3550 ha         1 MS3       0.111250
     56 H4          -2.5230    -6.1930    -4.5270 ha         1 MS3       0.110000
     57 H5          -2.9450    -4.9120    -2.4490 ha         1 MS3       0.111250
     58 H6          -1.0670    -3.9090    -1.2130 ha         1 MS3       0.118750
     59 H8          -1.6370     4.7130    -2.8750 ha         1 MS3       0.118750
     60 H9          -0.0230     6.2790    -3.8870 ha         1 MS3       0.111250
     61 H10          2.3830     6.1090    -3.3330 ha         1 MS3       0.110000
     62 H11          3.1600     4.3700    -1.7530 ha         1 MS3       0.111250
     63 H12          1.5430     2.8180    -0.7280 ha         1 MS3       0.118750
     64 H131        -2.1440     2.8910    -1.4700 h1         1 MS3       0.039700
     65 H132        -1.1590     2.8930    -0.0070 h1         1 MS3       0.039700
     66 H15         -0.9760     0.7890     0.5910 h1         1 MS3       0.045200
     67 H16         -0.5630    -1.2160    -1.6740 h1         1 MS3       0.126700
     68 H17          1.4080     0.1670    -1.4390 h1         1 MS3       0.126700
     69 H18          2.0340    -2.4100     0.0590 h1         1 MS3       0.045200
     70 H21          3.6200    -0.3470     0.3700 hn         1 MS3       0.335000
     71 H22          5.9480    -0.8810    -1.3680 h1         1 MS3       0.090700
     72 H23          6.5930     1.4540    -1.2740 hc         1 MS3       0.050200
     73 H241         4.9570     2.3660    -2.8540 hc         1 MS3       0.040200
     74 H242         5.2170     0.6580    -3.2040 hc         1 MS3       0.040200
     75 H243         3.7530     1.1800    -2.3670 hc         1 MS3       0.040200
     76 H251         3.9310     1.9860     0.1390 hc         1 MS3       0.040200
     77 H252         5.5470     2.2240     0.8180 hc         1 MS3       0.040200
     78 H253         5.0000     3.2190    -0.5160 hc         1 MS3       0.040200
     79 H28          7.9840    -0.1740    -0.3170 hn         1 MS3       0.337000
     80 H291         8.2170    -1.0790     2.4290 h1         1 MS3       0.063200
     81 H292         9.4520    -0.3820     1.4030 h1         1 MS3       0.063200
     82 H311         2.5270    -4.2890    -2.2530 h1         1 MS3       0.039700
     83 H312         1.5490    -4.3030    -0.7840 h1         1 MS3       0.039700
     84 H32          1.4070    -0.5080     1.3040 ho         1 MS3       0.496500
     85 H33         -0.6900    -1.5120     1.1280 ho         1 MS3       0.496500
     86 H36         -2.8900     0.0900     1.3530 hn         1 MS3       0.335000
     87 H37         -5.1510    -0.1920    -0.4790 h1         1 MS3       0.090700
     88 H38         -6.0230    -2.1340     0.7020 hc         1 MS3       0.050200
     89 H391        -3.2600    -2.7020    -0.4640 hc         1 MS3       0.040200
     90 H392        -4.5940    -3.8420    -0.3210 hc         1 MS3       0.040200
     91 H393        -4.7310    -2.4580    -1.4090 hc         1 MS3       0.040200
     92 H401        -4.8520    -1.9610     2.8950 hc         1 MS3       0.040200
     93 H402        -4.5660    -3.5290     2.1550 hc         1 MS3       0.040200
     94 H403        -3.3100    -2.3020     2.1060 hc         1 MS3       0.040200
     95 H43         -7.2220    -0.0210     0.6910 hn         1 MS3       0.337000
     96 H441        -7.4190     0.6770     3.4380 h1         1 MS3       0.063200
     97 H442        -7.3230     2.1410     2.4830 h1         1 MS3       0.063200
     98 H46         -9.7350     1.9930     3.7960 ha         1 MS3       0.127000
     99 H47        -12.1230     1.7540     3.1360 ha         1 MS3       0.121500
    100 H48        -12.6650     0.5470     1.0080 ha         1 MS3       0.126000
    101 H49        -10.7910    -0.3620    -0.3400 h4         1 MS3       0.020100
    102 H52          8.2680     0.1840     4.4370 ha         1 MS3       0.127000
    103 H53          8.1290     2.3930     5.5760 ha         1 MS3       0.121500
    104 H54          8.0670     4.4640     4.1660 ha         1 MS3       0.126000
    105 H55          8.1560     4.2110     1.7010 h4         1 MS3       0.020100
    106 C34         -2.6220     0.1140    -0.6580 c          1 MS3       0.572600
    107 O35         -3.0820     0.0430    -1.7860 o          1 MS3      -0.587600
    108 C13         -1.1310     2.7160    -1.0900 c3         1 MS3       0.211400
@<TRIPOS>BOND
     1     1     2 ar  
     2     1     6 ar  
     3     1    30 1   
     4     2     3 ar  
     5     2    54 1   
     6     3     4 ar  
     7     3    55 1   
     8     4     5 ar  
     9     4    56 1   
    10     5     6 ar  
    11     5    57 1   
    12     6    58 1   
    13     7     8 ar  
    14     7    12 ar  
    15     7   108 1   
    16     8     9 ar  
    17     8    59 1   
    18     9    10 ar  
    19     9    60 1   
    20    10    11 ar  
    21    10    61 1   
    22    11    12 ar  
    23    11    62 1   
    24    12    63 1   
    25    13    14 1   
    26    13   108 1   
    27    14    15 1   
    28    14    66 1   
    29    14   106 1   
    30    15    16 1   
    31    15    32 1   
    32    15    67 1   
    33    16    17 1   
    34    16    31 1   
    35    16    68 1   
    36    17    18 1   
    37    17    29 1   
    38    17    69 1   
    39    18    19 2   
    40    18    20 1   
    41    20    21 1   
    42    20    70 1   
    43    21    22 1   
    44    21    25 1   
    45    21    71 1   
    46    22    23 1   
    47    22    24 1   
    48    22    72 1   
    49    23    73 1   
    50    23    74 1   
    51    23    75 1   
    52    24    76 1   
    53    24    77 1   
    54    24    78 1   
    55    25    26 2   
    56    25    27 1   
    57    27    28 1   
    58    27    79 1   
    59    28    48 1   
    60    28    80 1   
    61    28    81 1   
    62    29    30 1   
    63    30    82 1   
    64    30    83 1   
    65    31    84 1   
    66    32    85 1   
    67    33    34 1   
    68    33    86 1   
    69    33   106 1   
    70    34    35 1   
    71    34    38 1   
    72    34    87 1   
    73    35    36 1   
    74    35    37 1   
    75    35    88 1   
    76    36    89 1   
    77    36    90 1   
    78    36    91 1   
    79    37    92 1   
    80    37    93 1   
    81    37    94 1   
    82    38    39 2   
    83    38    40 1   
    84    40    41 1   
    85    40    95 1   
    86    41    42 1   
    87    41    96 1   
    88    41    97 1   
    89    42    43 ar  
    90    42    47 ar  
    91    43    44 ar  
    92    43    98 1   
    93    44    45 ar  
    94    44    99 1   
    95    45    46 ar  
    96    45   100 1   
    97    46    47 ar  
    98    46   101 1   
    99    48    49 ar  
   100    48    53 ar  
   101    49    50 ar  
   102    49   102 1   
   103    50    51 ar  
   104    50   103 1   
   105    51    52 ar  
   106    51   104 1   
   107    52    53 ar  
   108    52   105 1   
   109    64   108 1   
   110    65   108 1   
   111   106   107 2   
@<TRIPOS>SUBSTRUCTURE
     1 MS3         1 TEMP              0 ****  ****    0 ROOT
