@<TRIPOS>MOLECULE
MS4
   38    40     1     0     0
SMALL
abcg2


@<TRIPOS>ATOM
      1 S2          -4.9430    -0.7700    -0.3580 s6         1 MS4       1.398800
      2 O1          -6.0080    -1.5000     0.2720 o          1 MS4      -0.521000
      3 O2          -4.7750     0.6520    -0.1990 o          1 MS4      -0.521000
      4 O3          -3.6080    -1.5000     0.2700 os         1 MS4      -0.451800
      5 N1          -4.9500    -1.0930    -1.9400 n8         1 MS4      -1.064100
      6 N3           5.5010    -2.8700     0.9470 nc         1 MS4      -0.692000
      7 N4           5.6880    -0.6390     0.8920 nd         1 MS4      -0.532800
      8 N5           5.2490    -1.1000    -0.2820 na         1 MS4      -0.068700
      9 N6          -0.3610     3.9240     0.0320 n1         1 MS4      -0.425000
     10 C1           5.8280    -1.7340     1.6000 cc         1 MS4       0.519900
     11 C2           5.1380    -2.4300    -0.2360 cd         1 MS4       0.408400
     12 C3           3.7700     0.6910    -1.0280 ca         1 MS4      -0.089300
     13 C4           3.9410     2.0630    -0.9110 ca         1 MS4      -0.079000
     14 C5           2.8610     2.8740    -0.6070 ca         1 MS4      -0.074000
     15 C6           1.6040     2.3100    -0.4060 ca         1 MS4       0.013000
     16 C7           1.4140     0.9230    -0.5030 cp         1 MS4      -0.005000
     17 C8           2.5120     0.1360    -0.8220 ca         1 MS4      -0.086000
     18 C9           0.5050     3.1870    -0.1540 cg         1 MS4       0.308000
     19 C12         -0.6470     0.5590     0.8510 ca         1 MS4      -0.064000
     20 C13         -1.8860    -0.0290     1.0280 ca         1 MS4       0.123000
     21 C14         -2.3940    -0.8950     0.0660 ca         1 MS4       0.127100
     22 C15         -1.6530    -1.1780    -1.0690 ca         1 MS4      -0.141000
     23 C16         -0.4160    -0.5840    -1.2510 ca         1 MS4      -0.079000
     24 CAO          4.9360    -0.1990    -1.3680 c3         1 MS4       0.136900
     25 CAV          0.0920     0.2980    -0.3000 cp         1 MS4      -0.038000
     26 H11N        -4.3100    -0.5550    -2.5130 hn         1 MS4       0.496500
     27 H12N        -5.0110    -2.0710    -2.1960 hn         1 MS4       0.496500
     28 H1           6.1800    -1.7140     2.6200 h5         1 MS4       0.067100
     29 H2           4.7990    -3.0230    -1.0730 h5         1 MS4       0.062100
     30 HAO1         5.8200     0.3940    -1.6000 h1         1 MS4       0.071700
     31 HAO2         4.7090    -0.8100    -2.2410 h1         1 MS4       0.071700
     32 H4           4.9160     2.5060    -1.0660 ha         1 MS4       0.128000
     33 H8           2.3810    -0.9370    -0.8990 ha         1 MS4       0.122000
     34 H5           2.9890     3.9460    -0.5320 ha         1 MS4       0.134000
     35 H12         -0.2530     1.2040     1.6260 ha         1 MS4       0.145000
     36 H15         -2.0390    -1.8700    -1.8060 ha         1 MS4       0.121000
     37 H16          0.1480    -0.8010    -2.1490 ha         1 MS4       0.123000
     38 CL          -2.7860     0.2760     2.4620 cl         1 MS4      -0.144000
@<TRIPOS>BOND
     1     1     2 2   
     2     1     3 2   
     3     1     4 1   
     4     1     5 1   
     5     4    21 1   
     6     5    26 1   
     7     5    27 1   
     8     6    10 1   
     9     6    11 2   
    10     7     8 1   
    11     7    10 2   
    12     8    11 1   
    13     8    24 1   
    14     9    18 3   
    15    10    28 1   
    16    11    29 1   
    17    12    13 ar  
    18    12    17 ar  
    19    12    24 1   
    20    13    14 ar  
    21    13    32 1   
    22    14    15 ar  
    23    14    34 1   
    24    15    16 ar  
    25    15    18 1   
    26    16    17 ar  
    27    16    25 1   
    28    17    33 1   
    29    19    20 ar  
    30    19    25 ar  
    31    19    35 1   
    32    20    21 ar  
    33    20    38 1   
    34    21    22 ar  
    35    22    23 ar  
    36    22    36 1   
    37    23    25 ar  
    38    23    37 1   
    39    24    30 1   
    40    24    31 1   
@<TRIPOS>SUBSTRUCTURE
     1 MS4         1 TEMP              0 ****  ****    0 ROOT
