@<TRIPOS>MOLECULE
MS4
   38    40     1     0     0
SMALL
No Charge or Current Charge


@<TRIPOS>ATOM
      1 S2          -5.3300    -0.3530    -0.7740 s6         1 MS4       1.398800
      2 O1          -6.3440    -0.5520     0.2620 o          1 MS4      -0.521000
      3 O2          -4.8270     0.9690    -1.1400 o          1 MS4      -0.521000
      4 O3          -4.0900    -1.4020    -0.5750 os         1 MS4      -0.451800
      5 N1          -5.9180    -1.0020    -2.1390 n8         1 MS4      -1.064100
      6 N3           6.9240    -1.2880     1.6820 nc         1 MS4      -0.692000
      7 N4           7.1580    -0.6760    -0.5110 nd         1 MS4      -0.532800
      8 N5           5.8460    -0.9230    -0.2000 na         1 MS4      -0.068700
      9 N6          -0.2360     3.6450     0.7530 n1         1 MS4      -0.425000
     10 C1           7.7380    -0.9120     0.6530 cc         1 MS4       0.519900
     11 C2           5.7220    -1.2920     1.1320 cd         1 MS4       0.408400
     12 C3           3.6510     0.1570    -0.7540 ca         1 MS4      -0.089300
     13 C4           3.9560     1.4630    -0.3320 ca         1 MS4      -0.079000
     14 C5           2.9310     2.3360     0.0660 ca         1 MS4      -0.074000
     15 C6           1.5860     1.9180     0.0510 ca         1 MS4       0.013000
     16 C7           1.2560     0.5960    -0.3670 cp         1 MS4      -0.005000
     17 C8           2.3070    -0.2620    -0.7730 ca         1 MS4      -0.086000
     18 C9           0.5770     2.8700     0.4340 cg         1 MS4       0.308000
     19 C12         -0.9770     0.1120     0.7450 ca         1 MS4      -0.064000
     20 C13         -2.2940    -0.3780     0.7030 ca         1 MS4       0.123000
     21 C14         -2.8100    -0.9040    -0.5030 ca         1 MS4       0.127100
     22 C15         -1.9940    -0.9600    -1.6450 ca         1 MS4      -0.141000
     23 C16         -0.6780    -0.4680    -1.5960 ca         1 MS4      -0.079000
     24 CAO          4.7620    -0.7950    -1.1900 c3         1 MS4       0.136900
     25 CAV         -0.1500     0.0880    -0.4060 cp         1 MS4      -0.038000
     26 H11N        -5.7160    -0.2380    -2.7770 hn         1 MS4       0.496500
     27 H12N        -5.1740    -1.6710    -2.3180 hn         1 MS4       0.496500
     28 H1           8.8060    -0.8240     0.8270 h5         1 MS4       0.067100
     29 H2           4.7740    -1.5330     1.5970 h5         1 MS4       0.062100
     30 HAO1         5.1850    -0.4360    -2.1360 h1         1 MS4       0.071700
     31 HAO2         4.3470    -1.7940    -1.3740 h1         1 MS4       0.071700
     32 H4           4.9890     1.8070    -0.3170 ha         1 MS4       0.128000
     33 H8           2.0670    -1.2720    -1.0970 ha         1 MS4       0.122000
     34 H5           3.1860     3.3470     0.3800 ha         1 MS4       0.134000
     35 H12         -0.5890     0.5020     1.6820 ha         1 MS4       0.145000
     36 H15         -2.3780    -1.3840    -2.5690 ha         1 MS4       0.121000
     37 H16         -0.0590    -0.5110    -2.4900 ha         1 MS4       0.123000
     38 Cl          -3.2650    -0.3410     2.1750 cl         1 MS4      -0.144000
@<TRIPOS>BOND
     1     1     2 2   
     2     1     3 2   
     3     1     4 1   
     4     1     5 1   
     5     4    21 1   
     6     5    26 1   
     7     5    27 1   
     8     6    10 1   
     9     6    11 2   
    10     7     8 1   
    11     7    10 2   
    12     8    11 1   
    13     8    24 1   
    14     9    18 3   
    15    10    28 1   
    16    11    29 1   
    17    12    13 ar  
    18    12    17 ar  
    19    12    24 1   
    20    13    14 ar  
    21    13    32 1   
    22    14    15 ar  
    23    14    34 1   
    24    15    16 ar  
    25    15    18 1   
    26    16    17 ar  
    27    16    25 1   
    28    17    33 1   
    29    19    20 ar  
    30    19    25 ar  
    31    19    35 1   
    32    20    21 ar  
    33    20    38 1   
    34    21    22 ar  
    35    22    23 ar  
    36    22    36 1   
    37    23    25 ar  
    38    23    37 1   
    39    24    30 1   
    40    24    31 1   
@<TRIPOS>SUBSTRUCTURE
     1 MS4         1 TEMP              0 ****  ****    0 ROOT
