@<TRIPOS>MOLECULE
MS5
   48    50     1     0     0
SMALL
No Charge or Current Charge


@<TRIPOS>ATOM
      1 OAE          4.8030    -0.1550    -1.6890 o          1 MS5      -0.538500
      2 SAZ          5.4070     0.0990    -0.3840 s6         1 MS5       1.397800
      3 OAD          6.6870    -0.4830     0.0200 o          1 MS5      -0.538500
      4 NAC          5.5670     1.7090    -0.2830 n8         1 MS5      -1.051100
      5 OAR          4.2980    -0.0760     0.8110 os         1 MS5      -0.442800
      6 CAX          2.9660    -0.1900     0.4770 ca         1 MS5       0.061100
      7 CAJ          2.3950    -1.4710     0.3900 ca         1 MS5      -0.068000
      8 CAW          2.1720     0.9590     0.2620 ca         1 MS5       0.118100
      9 OAQ          2.7620     2.2070     0.3790 os         1 MS5      -0.344100
     10 CAB          2.0160     3.4290     0.2270 c3         1 MS5       0.145900
     11 CAK          0.8060     0.8050    -0.0610 ca         1 MS5      -0.187000
     12 CAV          0.2350    -0.4800    -0.1590 ca         1 MS5      -0.030300
     13 CAO         -1.2490    -0.6250    -0.5280 c6         1 MS5       0.205100
     14 CAU          1.0350    -1.6220     0.0630 ca         1 MS5      -0.083300
     15 CAL          0.4200    -3.0220    -0.0150 c6         1 MS5      -0.025100
     16 CAM         -0.9550    -3.0470    -0.7230 c6         1 MS5       0.167800
     17 NAY         -1.8360    -1.9620    -0.2230 n3         1 MS5      -0.716600
     18 CAN         -3.2330    -2.0980    -0.7000 c3         1 MS5       0.214100
     19 CAS         -4.1880    -1.0770    -0.0840 ca         1 MS5      -0.057300
     20 CAI         -4.7360    -0.0430    -0.8700 ca         1 MS5      -0.146000
     21 CAG         -4.5260    -1.1570     1.2800 ca         1 MS5      -0.124000
     22 CAF         -5.4000    -0.2180     1.8520 ca         1 MS5      -0.078000
     23 CAH         -5.9440     0.8100     1.0640 ca         1 MS5      -0.196000
     24 CAT         -5.6110     0.9000    -0.3050 ca         1 MS5       0.137100
     25 OAP         -6.1120     1.8880    -1.1290 os         1 MS5      -0.344100
     26 CAA         -7.0130     2.9020    -0.6490 c3         1 MS5       0.149900
     27 HAC1         5.3730     1.9440    -1.2510 hn         1 MS5       0.492500
     28 HAC2         4.6870     1.9080     0.1910 hn         1 MS5       0.492500
     29 HAJ          3.0110    -2.3470     0.5770 ha         1 MS5       0.144000
     30 HAK          0.1710     1.6680    -0.2390 ha         1 MS5       0.123000
     31 HAB1         2.6730     4.2960     0.3730 h1         1 MS5       0.046367
     32 HAB2         1.5810     3.4990    -0.7780 h1         1 MS5       0.046367
     33 HAB3         1.2080     3.4870     0.9670 h1         1 MS5       0.046367
     34 HAO1        -1.8100     0.1600     0.0000 h1         1 MS5       0.049200
     35 HAO2        -1.3460    -0.4100    -1.6030 h1         1 MS5       0.049200
     36 HAL1         1.1040    -3.7090    -0.5300 hc         1 MS5       0.062200
     37 HAL2         0.3000    -3.4110     1.0050 hc         1 MS5       0.062200
     38 HAM1        -0.8040    -2.9400    -1.8070 h1         1 MS5       0.037200
     39 HAM2        -1.4180    -4.0310    -0.5560 h1         1 MS5       0.037200
     40 HAN1        -3.2670    -2.0070    -1.7950 h1         1 MS5       0.041700
     41 HAN2        -3.6110    -3.1000    -0.4550 h1         1 MS5       0.041700
     42 HAI         -4.4820     0.0320    -1.9240 ha         1 MS5       0.123000
     43 HAG         -4.1030    -1.9470     1.8970 ha         1 MS5       0.131000
     44 HAF         -5.6540    -0.2870     2.9080 ha         1 MS5       0.112000
     45 HAH         -6.6170     1.5240     1.5300 ha         1 MS5       0.117000
     46 HAA1        -7.2860     3.5840    -1.4650 h1         1 MS5       0.040367
     47 HAA2        -7.9350     2.4530    -0.2590 h1         1 MS5       0.040367
     48 HAA3        -6.5450     3.4950     0.1470 h1         1 MS5       0.040367
@<TRIPOS>BOND
     1     1     2 2   
     2     2     3 2   
     3     2     4 1   
     4     2     5 1   
     5     4    27 1   
     6     4    28 1   
     7     5     6 1   
     8     6     7 ar  
     9     6     8 ar  
    10     7    14 ar  
    11     7    29 1   
    12     8     9 1   
    13     8    11 ar  
    14     9    10 1   
    15    10    31 1   
    16    10    32 1   
    17    10    33 1   
    18    11    12 ar  
    19    11    30 1   
    20    12    13 1   
    21    12    14 ar  
    22    13    17 1   
    23    13    34 1   
    24    13    35 1   
    25    14    15 1   
    26    15    16 1   
    27    15    36 1   
    28    15    37 1   
    29    16    17 1   
    30    16    38 1   
    31    16    39 1   
    32    17    18 1   
    33    18    19 1   
    34    18    40 1   
    35    18    41 1   
    36    19    20 ar  
    37    19    21 ar  
    38    20    24 ar  
    39    20    42 1   
    40    21    22 ar  
    41    21    43 1   
    42    22    23 ar  
    43    22    44 1   
    44    23    24 ar  
    45    23    45 1   
    46    24    25 1   
    47    25    26 1   
    48    26    46 1   
    49    26    47 1   
    50    26    48 1   
@<TRIPOS>SUBSTRUCTURE
     1 MS5         1 TEMP              0 ****  ****    0 ROOT
