@<TRIPOS>MOLECULE
MS5
   48    50     1     0     0
SMALL
abcg2


@<TRIPOS>ATOM
      1 OAE          5.2440    -1.4680    -0.6480 o          1 MS5      -0.538500
      2 SAZ          5.4290    -0.2330     0.0730 s6         1 MS5       1.397800
      3 OAD          6.5890    -0.0060     0.8940 o          1 MS5      -0.538500
      4 NAC          5.2960     0.9750    -0.9990 n8         1 MS5      -1.051100
      5 OAR          4.2120    -0.0750     1.1470 os         1 MS5      -0.442800
      6 CAX          2.9120    -0.1700     0.6780 ca         1 MS5       0.061100
      7 CAJ          2.3140    -1.4010     0.5230 ca         1 MS5      -0.068000
      8 CAW          2.2110     1.0140     0.4200 ca         1 MS5       0.118100
      9 OAQ          2.8710     2.1650     0.6200 os         1 MS5      -0.344100
     10 CAB          2.1900     3.3820     0.3770 c3         1 MS5       0.145900
     11 CAK          0.8950     0.9100    -0.0070 ca         1 MS5      -0.187000
     12 CAV          0.2870    -0.3350    -0.1700 ca         1 MS5      -0.030300
     13 CAO         -1.1330    -0.3850    -0.6640 c6         1 MS5       0.205100
     14 CAU          0.9920    -1.5030     0.0970 ca         1 MS5      -0.083300
     15 CAL          0.3350    -2.8450    -0.0690 c6         1 MS5      -0.025100
     16 CAM         -0.9090    -2.7440    -0.9320 c6         1 MS5       0.167800
     17 NAY         -1.7550    -1.6730    -0.4410 n3         1 MS5      -0.716600
     18 CAN         -3.0880    -1.7120    -1.0020 c3         1 MS5       0.214100
     19 CAS         -4.0490    -0.8180    -0.2610 ca         1 MS5      -0.057300
     20 CAI         -4.9260    -0.0070    -0.9610 ca         1 MS5      -0.146000
     21 CAG         -4.0880    -0.8250     1.1350 ca         1 MS5      -0.124000
     22 CAF         -5.0030    -0.0280     1.7970 ca         1 MS5      -0.078000
     23 CAH         -5.8940     0.7840     1.1000 ca         1 MS5      -0.196000
     24 CAT         -5.8560     0.7940    -0.2900 ca         1 MS5       0.137100
     25 OAP         -6.6630     1.5400    -1.0700 os         1 MS5      -0.344100
     26 CAA         -7.6230     2.3700    -0.4480 c3         1 MS5       0.149900
     27 HAC1         4.5850     0.8520    -1.7100 hn         1 MS5       0.492500
     28 HAC2         5.3090     1.9090    -0.6060 hn         1 MS5       0.492500
     29 HAJ          2.8800    -2.2970     0.7470 ha         1 MS5       0.144000
     30 HAK          0.3170     1.8010    -0.2190 ha         1 MS5       0.123000
     31 HAB1         2.8950     4.1770     0.6020 h1         1 MS5       0.046367
     32 HAB2         1.8770     3.4720    -0.6660 h1         1 MS5       0.046367
     33 HAB3         1.3140     3.4920     1.0210 h1         1 MS5       0.046367
     34 HAO1        -1.7140     0.3900    -0.1580 h1         1 MS5       0.049200
     35 HAO2        -1.1400    -0.1200    -1.7380 h1         1 MS5       0.049200
     36 HAL1         1.0360    -3.5560    -0.5110 hc         1 MS5       0.062200
     37 HAL2         0.0610    -3.2450     0.9120 hc         1 MS5       0.062200
     38 HAM1        -0.6250    -2.5920    -1.9880 h1         1 MS5       0.037200
     39 HAM2        -1.4640    -3.6820    -0.8860 h1         1 MS5       0.037200
     40 HAN1        -3.0950    -1.4480    -2.0740 h1         1 MS5       0.041700
     41 HAN2        -3.4470    -2.7430    -0.9370 h1         1 MS5       0.041700
     42 HAI         -4.8970     0.0150    -2.0450 ha         1 MS5       0.123000
     43 HAG         -3.3940    -1.4440     1.6890 ha         1 MS5       0.131000
     44 HAF         -5.0360    -0.0310     2.8790 ha         1 MS5       0.112000
     45 HAH         -6.5970     1.3920     1.6540 ha         1 MS5       0.117000
     46 HAA1        -8.1640     2.8710    -1.2480 h1         1 MS5       0.040367
     47 HAA2        -8.3350     1.7960     0.1500 h1         1 MS5       0.040367
     48 HAA3        -7.1580     3.1260     0.1890 h1         1 MS5       0.040367
@<TRIPOS>BOND
     1     1     2 2   
     2     2     3 2   
     3     2     4 1   
     4     2     5 1   
     5     4    27 1   
     6     4    28 1   
     7     5     6 1   
     8     6     7 ar  
     9     6     8 ar  
    10     7    14 ar  
    11     7    29 1   
    12     8     9 1   
    13     8    11 ar  
    14     9    10 1   
    15    10    31 1   
    16    10    32 1   
    17    10    33 1   
    18    11    12 ar  
    19    11    30 1   
    20    12    13 1   
    21    12    14 ar  
    22    13    17 1   
    23    13    34 1   
    24    13    35 1   
    25    14    15 1   
    26    15    16 1   
    27    15    36 1   
    28    15    37 1   
    29    16    17 1   
    30    16    38 1   
    31    16    39 1   
    32    17    18 1   
    33    18    19 1   
    34    18    40 1   
    35    18    41 1   
    36    19    20 ar  
    37    19    21 ar  
    38    20    24 ar  
    39    20    42 1   
    40    21    22 ar  
    41    21    43 1   
    42    22    23 ar  
    43    22    44 1   
    44    23    24 ar  
    45    23    45 1   
    46    24    25 1   
    47    25    26 1   
    48    26    46 1   
    49    26    47 1   
    50    26    48 1   
@<TRIPOS>SUBSTRUCTURE
     1 MS5         1 TEMP              0 ****  ****    0 ROOT
