@<TRIPOS>MOLECULE
MS6
   21    20     1     0     0
SMALL
No Charge or Current Charge


@<TRIPOS>ATOM
      1 CA         201.5620   147.6510   169.6820 c3         1 MS6       0.178500
      2 C          201.9030   148.4610   168.3970 c3         1 MS6       0.080600
      3 CB         201.4770   146.1260   169.4120 c3         1 MS6      -0.073400
      4 CG         201.3840   145.2330   170.6710 c3         1 MS6       0.065600
      5 SD         202.9740   145.2310   171.6280 ss         1 MS6      -0.451000
      6 CE         202.5140   146.3190   173.0540 c3         1 MS6       0.041900
      7 N1         200.3200   148.1480   170.3230 n8         1 MS6      -0.997200
      8 S          200.6710   148.3400   167.0060 sh         1 MS6      -0.411800
      9 H1         202.3840   147.8310   170.3880 h1         1 MS6       0.027700
     10 H2         202.8740   148.1210   168.0150 h1         1 MS6       0.058700
     11 H3         202.0130   149.5210   168.6620 h1         1 MS6       0.058700
     12 H4         200.6030   145.9260   168.7820 hc         1 MS6       0.064700
     13 H5         202.3530   145.8140   168.8310 hc         1 MS6       0.064700
     14 H6         200.5520   145.5490   171.3130 h1         1 MS6       0.069700
     15 H7         201.1820   144.2020   170.3520 h1         1 MS6       0.069700
     16 H8         203.3630   146.4000   173.7450 h1         1 MS6       0.057700
     17 H9         202.2510   147.3220   172.6950 h1         1 MS6       0.057700
     18 H10        201.6580   145.8910   173.5900 h1         1 MS6       0.057700
     19 H11        200.2800   147.8080   171.2880 hn         1 MS6       0.397000
     20 H12        200.3810   149.1670   170.4280 hn         1 MS6       0.397000
     21 H14        201.3310   149.1600   166.1530 hs         1 MS6       0.185800
@<TRIPOS>BOND
     1     1     2 1   
     2     1     3 1   
     3     1     7 1   
     4     1     9 1   
     5     2     8 1   
     6     2    10 1   
     7     2    11 1   
     8     3     4 1   
     9     3    12 1   
    10     3    13 1   
    11     4     5 1   
    12     4    14 1   
    13     4    15 1   
    14     5     6 1   
    15     6    16 1   
    16     6    17 1   
    17     6    18 1   
    18     7    19 1   
    19     7    20 1   
    20     8    21 1   
@<TRIPOS>SUBSTRUCTURE
     1 MS6         1 TEMP              0 ****  ****    0 ROOT
