@<TRIPOS>MOLECULE
MS6
   21    20     1     0     0
SMALL
abcg2


@<TRIPOS>ATOM
      1 CA         201.6620   147.6420   169.7180 c3         1 MS6       0.178500
      2 C          201.9290   148.4820   168.4750 c3         1 MS6       0.080600
      3 CB         201.5480   146.1590   169.3880 c3         1 MS6      -0.073400
      4 CG         201.4350   145.2270   170.5880 c3         1 MS6       0.065600
      5 SD         202.8680   145.2380   171.7110 ss         1 MS6      -0.451000
      6 CE         202.3790   146.4490   172.9640 c3         1 MS6       0.041900
      7 N1         200.4470   148.1250   170.3550 n8         1 MS6      -0.997200
      8 S          200.4480   148.5410   167.4030 sh         1 MS6      -0.411800
      9 H1         202.5580   147.7690   170.3470 h1         1 MS6       0.027700
     10 H2         202.7630   148.0650   167.9120 h1         1 MS6       0.058700
     11 H3         202.1970   149.4990   168.7660 h1         1 MS6       0.058700
     12 H4         200.6770   145.9950   168.7470 hc         1 MS6       0.064700
     13 H5         202.4250   145.8650   168.8060 hc         1 MS6       0.064700
     14 H6         200.5350   145.4100   171.1790 h1         1 MS6       0.069700
     15 H7         201.3550   144.2000   170.2280 h1         1 MS6       0.069700
     16 H8         203.1280   146.4100   173.7530 h1         1 MS6       0.057700
     17 H9         202.3460   147.4640   172.5730 h1         1 MS6       0.057700
     18 H10        201.4120   146.1930   173.3940 h1         1 MS6       0.057700
     19 H11        200.2520   147.6060   171.2020 hn         1 MS6       0.397000
     20 H12        200.5720   149.0860   170.6480 hn         1 MS6       0.397000
     21 H14        201.0920   148.7940   166.2580 hs         1 MS6       0.185800
@<TRIPOS>BOND
     1     1     2 1   
     2     1     3 1   
     3     1     7 1   
     4     1     9 1   
     5     2     8 1   
     6     2    10 1   
     7     2    11 1   
     8     3     4 1   
     9     3    12 1   
    10     3    13 1   
    11     4     5 1   
    12     4    14 1   
    13     4    15 1   
    14     5     6 1   
    15     6    16 1   
    16     6    17 1   
    17     6    18 1   
    18     7    19 1   
    19     7    20 1   
    20     8    21 1   
@<TRIPOS>SUBSTRUCTURE
     1 MS6         1 TEMP              0 ****  ****    0 ROOT
