@<TRIPOS>MOLECULE
MS7
   41    42     1     0     0
SMALL
bcc


@<TRIPOS>ATOM
      1 N1           3.5800     1.3530     1.3380 n8         1 MS7      -0.876800
      2 C4           3.8910     0.1690     0.5650 c3         1 MS7       0.089500
      3 C6           3.2460     0.1090    -0.8410 c3         1 MS7      -0.064100
      4 C9           1.7470     0.1280    -0.7630 ca         1 MS7      -0.128300
      5 C10          1.0240     1.3170    -0.8590 ca         1 MS7      -0.090000
      6 C12         -0.3530     1.3390    -0.7210 ca         1 MS7      -0.187500
      7 C14         -1.0530     0.1570    -0.4780 ca         1 MS7       0.146100
      8 C15         -0.3500    -1.0420    -0.3870 ca         1 MS7      -0.187500
      9 C17          1.0330    -1.0410    -0.5270 ca         1 MS7      -0.090000
     10 O19         -2.3920     0.2690    -0.3540 os         1 MS7      -0.317900
     11 C20         -3.1470    -0.8980    -0.0610 c3         1 MS7       0.187700
     12 C23         -4.5780    -0.4840     0.1030 ca         1 MS7      -0.097300
     13 C24         -5.5250    -0.7920    -0.8660 ca         1 MS7      -0.103000
     14 C26         -6.8490    -0.3980    -0.7100 ca         1 MS7      -0.132500
     15 C28         -7.2320     0.3150     0.4170 ca         1 MS7      -0.116000
     16 C30         -6.2900     0.6290     1.3890 ca         1 MS7      -0.132500
     17 C32         -4.9710     0.2310     1.2330 ca         1 MS7      -0.103000
     18 C34          5.4010     0.0820     0.3940 c          1 MS7       0.668100
     19 O35          6.0750     1.0760     0.1550 o          1 MS7      -0.602100
     20 N36          5.9240    -1.1470     0.4690 ns         1 MS7      -0.573900
     21 C38          7.3250    -1.4120     0.2430 c3         1 MS7       0.096300
     22 HN1          3.9350     2.1730     0.8610 hn         1 MS7       0.355300
     23 HN1A         2.5760     1.4660     1.3970 hn         1 MS7       0.355300
     24 H4           3.5380    -0.7020     1.1270 h1         1 MS7       0.062700
     25 H6           3.6080     0.9560    -1.4290 hc         1 MS7       0.058700
     26 H6A          3.5820    -0.7990    -1.3490 hc         1 MS7       0.058700
     27 H10          1.5440     2.2470    -1.0560 ha         1 MS7       0.129000
     28 H12         -0.8950     2.2730    -0.8000 ha         1 MS7       0.142000
     29 H15         -0.8540    -1.9830    -0.2110 ha         1 MS7       0.142000
     30 H17          1.5610    -1.9850    -0.4500 ha         1 MS7       0.129000
     31 H20         -3.0470    -1.6340    -0.8670 h1         1 MS7       0.041200
     32 H20A        -2.7800    -1.3640     0.8610 h1         1 MS7       0.041200
     33 H24         -5.2290    -1.3450    -1.7490 ha         1 MS7       0.133000
     34 H26         -7.5790    -0.6500    -1.4680 ha         1 MS7       0.133000
     35 H28         -8.2630     0.6230     0.5410 ha         1 MS7       0.132000
     36 H30         -6.5850     1.1820     2.2720 ha         1 MS7       0.133000
     37 H32         -4.2420     0.4710     1.9980 ha         1 MS7       0.133000
     38 HN36         5.3230    -1.9230     0.6880 hn         1 MS7       0.313500
     39 H38          7.6320    -1.1300    -0.7640 h1         1 MS7       0.040367
     40 H38A         7.9560    -0.8790     0.9560 h1         1 MS7       0.040367
     41 H38B         7.4970    -2.4780     0.3670 h1         1 MS7       0.040367
@<TRIPOS>BOND
     1     1     2 1   
     2     1    22 1   
     3     1    23 1   
     4     2     3 1   
     5     2    18 1   
     6     2    24 1   
     7     3     4 1   
     8     3    25 1   
     9     3    26 1   
    10     4     5 ar  
    11     4     9 ar  
    12     5     6 ar  
    13     5    27 1   
    14     6     7 ar  
    15     6    28 1   
    16     7     8 ar  
    17     7    10 1   
    18     8     9 ar  
    19     8    29 1   
    20     9    30 1   
    21    10    11 1   
    22    11    12 1   
    23    11    31 1   
    24    11    32 1   
    25    12    13 ar  
    26    12    17 ar  
    27    13    14 ar  
    28    13    33 1   
    29    14    15 ar  
    30    14    34 1   
    31    15    16 ar  
    32    15    35 1   
    33    16    17 ar  
    34    16    36 1   
    35    17    37 1   
    36    18    19 2   
    37    18    20 1   
    38    20    21 1   
    39    20    38 1   
    40    21    39 1   
    41    21    40 1   
    42    21    41 1   
@<TRIPOS>SUBSTRUCTURE
     1 MS7         1 TEMP              0 ****  ****    0 ROOT
