@<TRIPOS>MOLECULE
MS7
   41    42     1     0     0
SMALL
No Charge or Current Charge


@<TRIPOS>ATOM
      1 N1           3.6040     1.1540     1.3580 n8         1 MS7      -0.987200
      2 C4           4.0290     0.0870     0.3900 c3         1 MS7       0.089500
      3 C6           3.2430     0.2300    -0.9390 c3         1 MS7      -0.064100
      4 C9           1.7260     0.2290    -0.7560 ca         1 MS7      -0.128300
      5 C10          0.9780     1.3990    -0.9890 ca         1 MS7      -0.072000
      6 C12         -0.4170     1.3920    -0.8200 ca         1 MS7      -0.169500
      7 C14         -1.0810     0.2210    -0.4220 ca         1 MS7       0.146100
      8 C15         -0.3340    -0.9550    -0.1910 ca         1 MS7      -0.169500
      9 C17          1.0620    -0.9480    -0.3590 ca         1 MS7      -0.072000
     10 O19         -2.4510     0.2760    -0.2740 os         1 MS7      -0.341100
     11 C20         -3.2240    -0.8680     0.1290 c3         1 MS7       0.210900
     12 C23         -4.6900    -0.4630     0.1930 ca         1 MS7      -0.097300
     13 C24         -5.5130    -0.5890    -0.9450 ca         1 MS7      -0.085000
     14 C26         -6.8670    -0.2150    -0.8850 ca         1 MS7      -0.114500
     15 C28         -7.4070     0.2870     0.3110 ca         1 MS7      -0.098000
     16 C30         -6.5910     0.4160     1.4480 ca         1 MS7      -0.114500
     17 C32         -5.2370     0.0430     1.3890 ca         1 MS7      -0.085000
     18 C34          5.5770    -0.0070     0.1220 c          1 MS7       0.601100
     19 O35          6.2260     0.9100    -0.3690 o          1 MS7      -0.602100
     20 N36          6.1720    -1.1960     0.4950 ns         1 MS7      -0.506900
     21 C38          7.5980    -1.4900     0.3380 c3         1 MS7       0.096300
     22 HN1          3.9070     2.0680     0.9990 hn         1 MS7       0.410500
     23 HN1A         2.5790     1.2190     1.3320 hn         1 MS7       0.410500
     24 H4           3.7320    -0.8740     0.8330 h1         1 MS7       0.062700
     25 H6           3.5670     1.1440    -1.4520 hc         1 MS7       0.058700
     26 H6A          3.5270    -0.5980    -1.6020 hc         1 MS7       0.058700
     27 H10          1.4750     2.3160    -1.3000 ha         1 MS7       0.111000
     28 H12         -0.9880     2.2990    -1.0000 ha         1 MS7       0.124000
     29 H15         -0.8160    -1.8790     0.1160 ha         1 MS7       0.124000
     30 H17          1.6270    -1.8600    -0.1820 ha         1 MS7       0.111000
     31 H20         -3.1020    -1.6890    -0.5890 h1         1 MS7       0.041200
     32 H20A        -2.9000    -1.2260     1.1150 h1         1 MS7       0.041200
     33 H24         -5.1020    -0.9750    -1.8750 ha         1 MS7       0.115000
     34 H26         -7.4970    -0.3150    -1.7660 ha         1 MS7       0.115000
     35 H28         -8.4550     0.5760     0.3570 ha         1 MS7       0.114000
     36 H30         -7.0080     0.8070     2.3740 ha         1 MS7       0.115000
     37 H32         -4.6110     0.1490     2.2730 ha         1 MS7       0.115000
     38 HN36         5.5730    -1.9010     0.9090 hn         1 MS7       0.313500
     39 H38          7.8740    -1.4280    -0.7230 h1         1 MS7       0.040367
     40 H38A         8.1900    -0.7650     0.9120 h1         1 MS7       0.040367
     41 H38B         7.8070    -2.5020     0.7080 h1         1 MS7       0.040367
@<TRIPOS>BOND
     1     1     2 1   
     2     1    22 1   
     3     1    23 1   
     4     2     3 1   
     5     2    18 1   
     6     2    24 1   
     7     3     4 1   
     8     3    25 1   
     9     3    26 1   
    10     4     5 ar  
    11     4     9 ar  
    12     5     6 ar  
    13     5    27 1   
    14     6     7 ar  
    15     6    28 1   
    16     7     8 ar  
    17     7    10 1   
    18     8     9 ar  
    19     8    29 1   
    20     9    30 1   
    21    10    11 1   
    22    11    12 1   
    23    11    31 1   
    24    11    32 1   
    25    12    13 ar  
    26    12    17 ar  
    27    13    14 ar  
    28    13    33 1   
    29    14    15 ar  
    30    14    34 1   
    31    15    16 ar  
    32    15    35 1   
    33    16    17 ar  
    34    16    36 1   
    35    17    37 1   
    36    18    19 2   
    37    18    20 1   
    38    20    21 1   
    39    20    38 1   
    40    21    39 1   
    41    21    40 1   
    42    21    41 1   
@<TRIPOS>SUBSTRUCTURE
     1 MS7         1 TEMP              0 ****  ****    0 ROOT
