@<TRIPOS>MOLECULE
MS8
   33    34     1     0     0
SMALL
abcg2


@<TRIPOS>ATOM
      1 O            4.2860    -1.4120     0.2260 o          1 MS8      -0.762000
      2 C            3.7940    -0.2660     0.2370 c          1 MS8       0.718000
      3 OXT          4.3070     0.7530     0.7470 o          1 MS8      -0.762000
      4 CA           2.3940    -0.0850    -0.3860 c3         1 MS8       0.037500
      5 N            2.1140    -1.1310    -1.3570 n8         1 MS8      -0.990200
      6 CB           1.3910     0.0420     0.7750 c3         1 MS8      -0.074400
      7 CAS         -0.0870     0.2220     0.4110 c5         1 MS8       0.038000
      8 CAJ         -0.9150     0.5460     1.6640 c5         1 MS8      -0.085400
      9 CAN         -0.2100     1.3290    -0.6650 c          1 MS8       0.736000
     10 OAC         -0.4760     0.9910    -1.8320 o          1 MS8      -0.733000
     11 OAE          0.0350     2.4870    -0.2650 o          1 MS8      -0.733000
     12 OAL         -0.6300    -1.0100    -0.0630 os         1 MS8      -0.439000
     13 CAR         -1.7840    -1.3770     0.6650 c5         1 MS8       0.150300
     14 CAQ         -2.2490    -0.1000     1.3630 c5         1 MS8       0.133300
     15 CAH         -2.8260    -1.9980    -0.2490 c6         1 MS8      -0.064400
     16 CAP         -3.5260    -0.9410    -1.0920 c6         1 MS8      -0.112400
     17 CAG         -4.0340     0.1570    -0.1770 c6         1 MS8       0.171600
     18 OAK         -2.9720     0.7700     0.5200 os         1 MS8      -0.415000
     19 HA           2.3990     0.8690    -0.9240 h1         1 MS8       0.070700
     20 HN           2.1460    -2.0270    -0.8870 hn         1 MS8       0.381000
     21 HNA          1.1650    -1.0180    -1.6900 hn         1 MS8       0.381000
     22 HB           1.4720    -0.8390     1.4240 hc         1 MS8       0.030700
     23 HBA          1.6920     0.8980     1.3830 hc         1 MS8       0.030700
     24 HAJ         -0.4790     0.0690     2.5480 hc         1 MS8       0.050700
     25 HAJA        -0.9780     1.6140     1.8620 hc         1 MS8       0.050700
     26 HAR         -1.5220    -2.1050     1.4490 h1         1 MS8       0.007700
     27 HAQ         -2.8350    -0.3390     2.2630 h1         1 MS8       0.001700
     28 HAH         -2.3660    -2.7710    -0.8690 hc         1 MS8       0.021700
     29 HAHA        -3.5640    -2.5040     0.3810 hc         1 MS8       0.021700
     30 HAP         -2.8350    -0.5130    -1.8210 hc         1 MS8       0.058200
     31 HAPA        -4.3630    -1.3790    -1.6410 hc         1 MS8       0.058200
     32 HAG         -4.5310     0.9480    -0.7430 h1         1 MS8       0.010700
     33 HAGA        -4.7730    -0.2580     0.5250 h1         1 MS8       0.010700
@<TRIPOS>BOND
     1     1     2 1   
     2     2     3 1   
     3     2     4 1   
     4     4     5 1   
     5     4     6 1   
     6     4    19 1   
     7     5    20 1   
     8     5    21 1   
     9     6     7 1   
    10     6    22 1   
    11     6    23 1   
    12     7     8 1   
    13     7     9 1   
    14     7    12 1   
    15     8    14 1   
    16     8    24 1   
    17     8    25 1   
    18     9    10 1   
    19     9    11 1   
    20    12    13 1   
    21    13    14 1   
    22    13    15 1   
    23    13    26 1   
    24    14    18 1   
    25    14    27 1   
    26    15    16 1   
    27    15    28 1   
    28    15    29 1   
    29    16    17 1   
    30    16    30 1   
    31    16    31 1   
    32    17    18 1   
    33    17    32 1   
    34    17    33 1   
@<TRIPOS>SUBSTRUCTURE
     1 MS8         1 TEMP              0 ****  ****    0 ROOT
