@<TRIPOS>MOLECULE
MS8
   33    34     1     0     0
SMALL
No Charge or Current Charge


@<TRIPOS>ATOM
      1 O            4.0060    -1.5810     0.9090 o          1 MS8      -0.762000
      2 C            3.8140    -0.5210     0.3240 c          1 MS8       0.718000
      3 OXT          4.7020     0.3030     0.1410 o          1 MS8      -0.762000
      4 CA           2.3870    -0.2480    -0.3120 c3         1 MS8       0.037500
      5 N            1.8880    -1.2650    -1.3030 n8         1 MS8      -0.990200
      6 CB           1.3190    -0.0240     0.7990 c3         1 MS8      -0.074400
      7 CAS         -0.0590     0.5700     0.3390 c5         1 MS8       0.038000
      8 CAJ         -1.0290     0.8180     1.5650 c5         1 MS8      -0.085400
      9 CAN          0.1390     1.9550    -0.4220 c          1 MS8       0.736000
     10 OAC         -0.2810     2.1040    -1.5650 o          1 MS8      -0.733000
     11 OAE          0.7410     2.8620     0.1430 o          1 MS8      -0.733000
     12 OAL         -0.7610    -0.4170    -0.4870 os         1 MS8      -0.439000
     13 CAR         -1.5890    -1.2090     0.3840 c5         1 MS8       0.150300
     14 CAQ         -2.2280    -0.1390     1.3140 c5         1 MS8       0.133300
     15 CAH         -2.6150    -2.0540    -0.4050 c6         1 MS8      -0.064400
     16 CAP         -3.6710    -1.1510    -1.0810 c6         1 MS8      -0.112400
     17 CAG         -4.2830    -0.1500    -0.0720 c6         1 MS8       0.171600
     18 OAK         -3.2540     0.6100     0.5990 os         1 MS8      -0.415000
     19 HA           2.4870     0.7020    -0.8540 h1         1 MS8       0.070700
     20 HN           1.9420    -2.1910    -0.8640 hn         1 MS8       0.381000
     21 HNA          0.8730    -1.1090    -1.3940 hn         1 MS8       0.381000
     22 HB           1.1650    -0.9670     1.3370 hc         1 MS8       0.030700
     23 HBA          1.7570     0.6580     1.5370 hc         1 MS8       0.030700
     24 HAJ         -0.5410     0.5780     2.5160 hc         1 MS8       0.050700
     25 HAJA        -1.3550     1.8610     1.6480 hc         1 MS8       0.050700
     26 HAR         -0.9420    -1.8880     0.9560 h1         1 MS8       0.007700
     27 HAQ         -2.6550    -0.5600     2.2340 h1         1 MS8       0.001700
     28 HAH         -2.1030    -2.6730    -1.1540 hc         1 MS8       0.021700
     29 HAHA        -3.1150    -2.7460     0.2860 hc         1 MS8       0.021700
     30 HAP         -3.2090    -0.5930    -1.9070 hc         1 MS8       0.058200
     31 HAPA        -4.4650    -1.7660    -1.5240 hc         1 MS8       0.058200
     32 HAG         -4.9580     0.5450    -0.5900 h1         1 MS8       0.010700
     33 HAGA        -4.8660    -0.6940     0.6850 h1         1 MS8       0.010700
@<TRIPOS>BOND
     1     1     2 1   
     2     2     3 1   
     3     2     4 1   
     4     4     5 1   
     5     4     6 1   
     6     4    19 1   
     7     5    20 1   
     8     5    21 1   
     9     6     7 1   
    10     6    22 1   
    11     6    23 1   
    12     7     8 1   
    13     7     9 1   
    14     7    12 1   
    15     8    14 1   
    16     8    24 1   
    17     8    25 1   
    18     9    10 1   
    19     9    11 1   
    20    12    13 1   
    21    13    14 1   
    22    13    15 1   
    23    13    26 1   
    24    14    18 1   
    25    14    27 1   
    26    15    16 1   
    27    15    28 1   
    28    15    29 1   
    29    16    17 1   
    30    16    30 1   
    31    16    31 1   
    32    17    18 1   
    33    17    32 1   
    34    17    33 1   
@<TRIPOS>SUBSTRUCTURE
     1 MS8         1 TEMP              0 ****  ****    0 ROOT
