@<TRIPOS>MOLECULE
MS9
   20    20     1     0     0
SMALL
abcg2


@<TRIPOS>ATOM
      1 CL1         -3.7440    -0.4010    -0.0150 cl         1 MS9      -0.201000
      2 C2          -2.0210    -0.2420    -0.0030 ca         1 MS9       0.208000
      3 C3          -1.4720     1.0160     0.0010 ca         1 MS9      -0.230000
      4 C5          -0.0710     1.1870     0.0120 ca         1 MS9       0.417000
      5 C6           0.7430     0.0230     0.0080 ca         1 MS9      -0.256600
      6 C7           0.1280    -1.2360     0.0050 ca         1 MS9       0.008000
      7 C9          -1.2380    -1.3960     0.0020 ca         1 MS9      -0.194000
      8 C11          2.2090     0.1340    -0.0030 c          1 MS9       0.625700
      9 O12          2.8240     1.1830     0.0090 o          1 MS9      -0.533000
     10 O13          2.8210    -1.0410    -0.0300 os         1 MS9      -0.437100
     11 C14          4.2470    -1.0440    -0.0480 c3         1 MS9       0.154900
     12 N18          0.4180     2.4400     0.0430 nv         1 MS9      -1.110000
     13 H3          -2.1080     1.8910    -0.0010 ha         1 MS9       0.129000
     14 H7           0.7440    -2.1250     0.0050 ha         1 MS9       0.130000
     15 H9          -1.6860    -2.3790     0.0020 ha         1 MS9       0.135000
     16 H14          4.5400    -2.0900    -0.0790 h1         1 MS9       0.048700
     17 H14A         4.6360    -0.5340    -0.9290 h1         1 MS9       0.048700
     18 H14B         4.6600    -0.5800     0.8470 h1         1 MS9       0.048700
     19 HN18        -0.2030     3.2210    -0.0760 hn         1 MS9       0.505000
     20 HN1A         1.4070     2.5990    -0.0380 hn         1 MS9       0.505000
@<TRIPOS>BOND
     1     1     2 1   
     2     2     3 ar  
     3     2     7 ar  
     4     3     4 ar  
     5     3    13 1   
     6     4     5 ar  
     7     4    12 1   
     8     5     6 ar  
     9     5     8 1   
    10     6     7 ar  
    11     6    14 1   
    12     7    15 1   
    13     8     9 2   
    14     8    10 1   
    15    10    11 1   
    16    11    16 1   
    17    11    17 1   
    18    11    18 1   
    19    12    19 1   
    20    12    20 1   
@<TRIPOS>SUBSTRUCTURE
     1 MS9         1 TEMP              0 ****  ****    0 ROOT
