@<TRIPOS>MOLECULE
MS9
   20    20     1     0     0
SMALL
No Charge or Current Charge


@<TRIPOS>ATOM
      1 Cl1         -3.8310    -0.3930     0.1020 cl         1 MS9      -0.201000
      2 C2          -2.0820    -0.2320     0.0360 ca         1 MS9       0.208000
      3 C3          -1.4930     1.0340     0.1180 ca         1 MS9      -0.230000
      4 C5          -0.1030     1.1690     0.0670 ca         1 MS9       0.417000
      5 C6           0.7250     0.0340    -0.0700 ca         1 MS9      -0.256600
      6 C7           0.1170    -1.2420    -0.1500 ca         1 MS9       0.008000
      7 C9          -1.2800    -1.3690    -0.0980 ca         1 MS9      -0.194000
      8 C11          2.2280     0.1470    -0.1340 c          1 MS9       0.625700
      9 O12          2.8230     1.1700    -0.4530 o          1 MS9      -0.533000
     10 O13          2.8700    -1.0350     0.1370 os         1 MS9      -0.437100
     11 C14          4.3090    -1.0570     0.0810 c3         1 MS9       0.154900
     12 N18          0.4120     2.4260     0.1680 nv         1 MS9      -1.110000
     13 H3          -2.1260     1.9090     0.2280 ha         1 MS9       0.129000
     14 H7           0.7170    -2.1430    -0.2630 ha         1 MS9       0.130000
     15 H9          -1.7400    -2.3520    -0.1630 ha         1 MS9       0.135000
     16 H14          4.6840    -2.0600     0.3220 h1         1 MS9       0.048700
     17 H14A         4.6660    -0.7920    -0.9220 h1         1 MS9       0.048700
     18 H14B         4.7400    -0.3510     0.8020 h1         1 MS9       0.048700
     19 HN18        -0.1970     3.2210    -0.0110 hn         1 MS9       0.505000
     20 HN1A         1.3960     2.5430    -0.0830 hn         1 MS9       0.505000
@<TRIPOS>BOND
     1     1     2 1   
     2     2     3 ar  
     3     2     7 ar  
     4     3     4 ar  
     5     3    13 1   
     6     4     5 ar  
     7     4    12 1   
     8     5     6 ar  
     9     5     8 1   
    10     6     7 ar  
    11     6    14 1   
    12     7    15 1   
    13     8     9 2   
    14     8    10 1   
    15    10    11 1   
    16    11    16 1   
    17    11    17 1   
    18    11    18 1   
    19    12    19 1   
    20    12    20 1   
@<TRIPOS>SUBSTRUCTURE
     1 MS9         1 TEMP              0 ****  ****    0 ROOT
