@<TRIPOS>MOLECULE
MSA
   16    15     1     0     0
SMALL
No Charge or Current Charge


@<TRIPOS>ATOM
      1 N           10.7970    37.7920    17.7000 n7         1 MSA      -0.847400
      2 CA          11.1140    38.3150    16.3340 c3         1 MSA       0.227500
      3 C            9.9870    39.2090    15.6260 c          1 MSA       0.737000
      4 O            9.8520    40.3890    15.9440 o          1 MSA      -0.699000
      5 OXT          9.2930    38.6800    14.7620 o          1 MSA      -0.699000
      6 CN          10.3590    38.7800    18.7070 c3         1 MSA       0.169100
      7 SB          12.7640    39.1570    16.5340 ss         1 MSA      -0.504000
      8 CG          13.8550    37.7020    16.8740 c3         1 MSA       0.019900
      9 H           11.6530    37.3510    18.0460 hn         1 MSA       0.384000
     10 HA          11.2940    37.4650    15.6650 h2         1 MSA       0.049700
     11 HN1         10.1900    38.2880    19.6740 h1         1 MSA       0.023700
     12 HN2         11.1140    39.5630    18.8560 h1         1 MSA       0.023700
     13 HN3          9.4180    39.2590    18.4070 h1         1 MSA       0.023700
     14 HG1         14.8990    38.0330    16.9420 h1         1 MSA       0.030367
     15 HG2         13.5690    37.2270    17.8210 h1         1 MSA       0.030367
     16 HG3         13.7630    36.9710    16.0600 h1         1 MSA       0.030367
@<TRIPOS>BOND
     1     1     2 1   
     2     1     6 1   
     3     1     9 1   
     4     2     3 1   
     5     2     7 1   
     6     2    10 1   
     7     3     4 1   
     8     3     5 1   
     9     6    11 1   
    10     6    12 1   
    11     6    13 1   
    12     7     8 1   
    13     8    14 1   
    14     8    15 1   
    15     8    16 1   
@<TRIPOS>SUBSTRUCTURE
     1 MSA         1 TEMP              0 ****  ****    0 ROOT
