@<TRIPOS>MOLECULE
MSA
   16    15     1     0     0
SMALL
abcg2


@<TRIPOS>ATOM
      1 N           10.6710    37.7220    17.5280 n7         1 MSA      -0.847400
      2 CA          11.1100    38.2900    16.2990 c3         1 MSA       0.227500
      3 C           10.0440    39.2390    15.6770 c          1 MSA       0.737000
      4 O           10.4020    40.4060    15.4400 o          1 MSA      -0.699000
      5 OXT          8.9320    38.7230    15.4820 o          1 MSA      -0.699000
      6 CN          10.4650    38.6360    18.6270 c3         1 MSA       0.169100
      7 SB          12.7070    39.2410    16.3760 ss         1 MSA      -0.504000
      8 CG          13.7840    37.9210    16.9850 c3         1 MSA       0.019900
      9 H           11.2550    36.9470    17.8070 hn         1 MSA       0.384000
     10 HA          11.2970    37.4640    15.6070 h2         1 MSA       0.049700
     11 HN1         10.1470    38.0770    19.5060 h1         1 MSA       0.023700
     12 HN2         11.3530    39.2210    18.8950 h1         1 MSA       0.023700
     13 HN3          9.6680    39.3440    18.3900 h1         1 MSA       0.023700
     14 HG1         14.8040    38.3000    17.0130 h1         1 MSA       0.030367
     15 HG2         13.5150    37.6000    17.9920 h1         1 MSA       0.030367
     16 HG3         13.7650    37.0480    16.3300 h1         1 MSA       0.030367
@<TRIPOS>BOND
     1     1     2 1   
     2     1     6 1   
     3     1     9 1   
     4     2     3 1   
     5     2     7 1   
     6     2    10 1   
     7     3     4 1   
     8     3     5 1   
     9     6    11 1   
    10     6    12 1   
    11     6    13 1   
    12     7     8 1   
    13     8    14 1   
    14     8    15 1   
    15     8    16 1   
@<TRIPOS>SUBSTRUCTURE
     1 MSA         1 TEMP              0 ****  ****    0 ROOT
