@<TRIPOS>MOLECULE
MSB
   19    19     1     0     0
SMALL
No Charge or Current Charge


@<TRIPOS>ATOM
      1 S            1.7450    -1.2460     4.5440 sy         1 MSB       0.926700
      2 OB1          2.6500    -2.3230     4.9760 o          1 MSB      -0.520500
      3 OB2          0.3420    -1.2040     4.9880 o          1 MSB      -0.520500
      4 CG           1.7820    -1.1500     2.7390 ca         1 MSB      -0.322500
      5 CD1          0.7010    -0.5760     2.0390 ca         1 MSB       0.027000
      6 CD2          2.8970    -1.6400     2.0290 ca         1 MSB       0.027000
      7 CE1          0.7340    -0.4980     0.6360 ca         1 MSB      -0.197000
      8 CE2          2.9220    -1.5570     0.6270 ca         1 MSB      -0.197000
      9 CZ           1.8490    -0.9900    -0.0750 ca         1 MSB       0.202100
     10 OH           1.9350    -0.9390    -1.4510 os         1 MSB      -0.332100
     11 CH           0.8900    -0.3790    -2.2660 c3         1 MSB       0.144900
     12 HD1         -0.1660    -0.1910     2.5750 ha         1 MSB       0.138500
     13 HD2          3.7420    -2.0830     2.5550 ha         1 MSB       0.138500
     14 HE1         -0.1120    -0.0520     0.1220 ha         1 MSB       0.130500
     15 HE2          3.7810    -1.9360     0.0800 ha         1 MSB       0.130500
     16 HH1         -0.0510    -0.9260    -2.1250 h1         1 MSB       0.048033
     17 HH2          1.1620    -0.4390    -3.3270 h1         1 MSB       0.048033
     18 HH3          0.7250     0.6770    -2.0170 h1         1 MSB       0.048033
     19 HS1          2.3220    -0.0580     4.9210 hs         1 MSB       0.079800
@<TRIPOS>BOND
     1     1     2 2   
     2     1     3 2   
     3     1     4 1   
     4     1    19 1   
     5     4     5 ar  
     6     4     6 ar  
     7     5     7 ar  
     8     5    12 1   
     9     6     8 ar  
    10     6    13 1   
    11     7     9 ar  
    12     7    14 1   
    13     8     9 ar  
    14     8    15 1   
    15     9    10 1   
    16    10    11 1   
    17    11    16 1   
    18    11    17 1   
    19    11    18 1   
@<TRIPOS>SUBSTRUCTURE
     1 MSB         1 TEMP              0 ****  ****    0 ROOT
