@<TRIPOS>MOLECULE
MSB
   19    19     1     0     0
SMALL
abcg2


@<TRIPOS>ATOM
      1 S            1.7490    -1.2170     4.4550 sy         1 MSB       0.926700
      2 OB1          2.6640    -2.2620     4.9010 o          1 MSB      -0.520500
      3 OB2          0.3640    -1.2220     4.9150 o          1 MSB      -0.520500
      4 CG           1.7720    -1.1520     2.6990 ca         1 MSB      -0.322500
      5 CD1          0.7020    -0.5910     2.0180 ca         1 MSB       0.027000
      6 CD2          2.8750    -1.6420     2.0050 ca         1 MSB       0.027000
      7 CE1          0.7260    -0.5120     0.6350 ca         1 MSB      -0.197000
      8 CE2          2.9010    -1.5670     0.6300 ca         1 MSB      -0.197000
      9 CZ           1.8290    -0.9980    -0.0690 ca         1 MSB       0.202100
     10 OH           1.9470    -0.9610    -1.3980 os         1 MSB      -0.332100
     11 CH           0.9080    -0.3740    -2.1630 c3         1 MSB       0.144900
     12 HD1         -0.1600    -0.2100     2.5500 ha         1 MSB       0.138500
     13 HD2          3.7120    -2.0840     2.5280 ha         1 MSB       0.138500
     14 HE1         -0.1220    -0.0720     0.1280 ha         1 MSB       0.130500
     15 HE2          3.7520    -1.9510     0.0810 ha         1 MSB       0.130500
     16 HH1         -0.0350    -0.9130    -2.0470 h1         1 MSB       0.048033
     17 HH2          1.2220    -0.4350    -3.2020 h1         1 MSB       0.048033
     18 HH3          0.7560     0.6750    -1.9000 h1         1 MSB       0.048033
     19 HS1          2.2910    -0.0240     4.8030 hs         1 MSB       0.079800
@<TRIPOS>BOND
     1     1     2 2   
     2     1     3 2   
     3     1     4 1   
     4     1    19 1   
     5     4     5 ar  
     6     4     6 ar  
     7     5     7 ar  
     8     5    12 1   
     9     6     8 ar  
    10     6    13 1   
    11     7     9 ar  
    12     7    14 1   
    13     8     9 ar  
    14     8    15 1   
    15     9    10 1   
    16    10    11 1   
    17    11    16 1   
    18    11    17 1   
    19    11    18 1   
@<TRIPOS>SUBSTRUCTURE
     1 MSB         1 TEMP              0 ****  ****    0 ROOT
