@<TRIPOS>MOLECULE
MSC
   83    87     1     0     0
SMALL
bcc


@<TRIPOS>ATOM
      1 C01         -0.6840     0.4550     0.0840 c3         1 MSC       0.125100
      2 O02         -1.4100     1.4120    -0.6520 oh         1 MSC      -0.589800
      3 C03         -1.0990    -0.9640    -0.3320 c3         1 MSC       0.043100
      4 O04         -0.4000    -1.8600     0.4760 os         1 MSC      -0.375600
      5 C05         -0.4640    -3.2040     0.0490 c3         1 MSC       0.183700
      6 C06          0.5560    -4.0030     0.8070 ca         1 MSC      -0.088300
      7 C07          0.2100    -5.2170     1.3880 ca         1 MSC      -0.107000
      8 C08          1.1580    -5.9750     2.0650 ca         1 MSC      -0.132500
      9 C09          2.4620    -5.5160     2.1780 ca         1 MSC      -0.121000
     10 C10          2.8130    -4.2980     1.6070 ca         1 MSC      -0.132500
     11 C11          1.8680    -3.5480     0.9230 ca         1 MSC      -0.107000
     12 C12         -2.6090    -1.1060    -0.1120 c          1 MSC       0.636100
     13 O13         -3.0640    -1.2010     1.0150 o          1 MSC      -0.573100
     14 N14         -3.3480    -1.1010    -1.2320 ns         1 MSC      -0.555900
     15 C15         -4.7850    -1.1020    -1.2420 c5         1 MSC       0.159000
     16 C16         -5.4240     0.1880    -1.6980 ca         1 MSC      -0.107300
     17 C17         -4.9980     1.4900    -1.5080 ca         1 MSC      -0.100000
     18 C18         -5.7890     2.5250    -1.9980 ca         1 MSC      -0.131000
     19 C19         -6.9810     2.2500    -2.6600 ca         1 MSC      -0.125000
     20 C20         -7.3990     0.9350    -2.8510 ca         1 MSC      -0.114000
     21 C21         -6.6100    -0.0940    -2.3660 ca         1 MSC      -0.080300
     22 C22         -6.8200    -1.5820    -2.4310 c5         1 MSC      -0.068100
     23 C23         -5.4080    -2.1400    -2.1930 c5         1 MSC       0.131100
     24 O24         -4.6370    -2.1300    -3.3710 oh         1 MSC      -0.600800
     25 C31          0.8310     0.6550    -0.0250 c3         1 MSC       0.116100
     26 O32          1.3130     0.3500    -1.3180 oh         1 MSC      -0.599800
     27 C33          1.2460     2.0920     0.3710 c3         1 MSC       0.052100
     28 O34          0.5160     2.4770     1.4920 os         1 MSC      -0.376600
     29 C35          0.2780     3.8650     1.6130 c3         1 MSC       0.190700
     30 C36         -0.8650     4.0690     2.5650 ca         1 MSC      -0.093300
     31 C37         -0.6900     4.7720     3.7510 ca         1 MSC      -0.106000
     32 C38         -1.7540     4.9640     4.6250 ca         1 MSC      -0.134000
     33 C39         -3.0040     4.4440     4.3210 ca         1 MSC      -0.122000
     34 C40         -3.1860     3.7340     3.1380 ca         1 MSC      -0.134000
     35 C41         -2.1240     3.5490     2.2670 ca         1 MSC      -0.106000
     36 C42          2.7520     2.1870     0.6760 c          1 MSC       0.637100
     37 O43          3.1500     2.5920     1.7540 o          1 MSC      -0.580100
     38 N44          3.5660     1.8150    -0.3260 ns         1 MSC      -0.571900
     39 C45          5.0050     1.7260    -0.1980 c3         1 MSC       0.152300
     40 C46          5.4970     0.4000    -0.7090 ca         1 MSC      -0.148300
     41 C47          6.2010     0.2900    -1.9010 ca         1 MSC       0.152900
     42 C48          6.6480    -0.9110    -2.4180 ca         1 MSC      -0.173000
     43 C49          6.3760    -2.0720    -1.7150 ca         1 MSC      -0.087000
     44 C50          5.6740    -2.0240    -0.5200 ca         1 MSC      -0.142000
     45 C51          5.2470    -0.7980    -0.0390 ca         1 MSC       0.061400
     46 CL           4.3800    -0.7580     1.4600 cl         1 MSC      -0.082400
     47 F            6.4590     1.4080    -2.5940 f          1 MSC      -0.139900
     48 H011        -0.9730     0.5910     1.1270 h1         1 MSC       0.136700
     49 H021        -1.3430     1.2340    -1.5970 ho         1 MSC       0.393000
     50 H031        -0.8510    -1.1250    -1.3940 h1         1 MSC       0.039700
     51 H051        -1.4630    -3.6270     0.2100 h1         1 MSC       0.034700
     52 H052        -0.2610    -3.2660    -1.0290 h1         1 MSC       0.034700
     53 H071        -0.8110    -5.5740     1.3160 ha         1 MSC       0.135000
     54 H081         0.8730    -6.9190     2.5110 ha         1 MSC       0.130000
     55 H091         3.2010    -6.0990     2.7110 ha         1 MSC       0.130000
     56 H101         3.8280    -3.9310     1.6990 ha         1 MSC       0.130000
     57 H111         2.1550    -2.6030     0.4790 ha         1 MSC       0.135000
     58 H141        -2.8820    -1.0410    -2.1230 hn         1 MSC       0.323500
     59 H151        -5.1200    -1.3280    -0.2270 h1         1 MSC       0.098700
     60 H171        -4.0630     1.7050    -1.0050 ha         1 MSC       0.147000
     61 H181        -5.4720     3.5520    -1.8670 ha         1 MSC       0.132000
     62 H191        -7.5850     3.0660    -3.0380 ha         1 MSC       0.130000
     63 H201        -8.3210     0.7270    -3.3800 ha         1 MSC       0.132000
     64 H221        -7.2550    -1.9290    -3.3700 hc         1 MSC       0.060200
     65 H222        -7.4890    -1.9100    -1.6290 hc         1 MSC       0.060200
     66 H231        -5.4290    -3.1360    -1.7390 h1         1 MSC       0.048700
     67 H241        -5.0030    -2.7760    -3.9830 ho         1 MSC       0.408000
     68 H311         1.3130    -0.0580     0.6470 h1         1 MSC       0.121700
     69 H321         0.9300     0.9640    -1.9560 ho         1 MSC       0.396000
     70 H331         1.0260     2.7540    -0.4830 h1         1 MSC       0.043700
     71 H351         1.1680     4.3930     1.9700 h1         1 MSC       0.037700
     72 H352         0.0210     4.2870     0.6320 h1         1 MSC       0.037700
     73 H371         0.2860     5.1730     3.9970 ha         1 MSC       0.137000
     74 H381        -1.6040     5.5160     5.5440 ha         1 MSC       0.130500
     75 H391        -3.8340     4.5910     4.9990 ha         1 MSC       0.128000
     76 H401        -4.1600     3.3280     2.8960 ha         1 MSC       0.130500
     77 H411        -2.2730     3.0020     1.3430 ha         1 MSC       0.137000
     78 H441         3.1470     1.4230    -1.1550 hn         1 MSC       0.324500
     79 H451         5.4860     2.5440    -0.7330 h1         1 MSC       0.075700
     80 H452         5.2690     1.8430     0.8530 h1         1 MSC       0.075700
     81 H481         7.1940    -0.9310    -3.3510 ha         1 MSC       0.155000
     82 H491         6.7120    -3.0250    -2.0990 ha         1 MSC       0.142000
     83 H501         5.4660    -2.9320     0.0300 ha         1 MSC       0.153000
@<TRIPOS>BOND
     1     1     2 1   
     2     1     3 1   
     3     1    25 1   
     4     1    48 1   
     5     2    49 1   
     6     3     4 1   
     7     3    12 1   
     8     3    50 1   
     9     4     5 1   
    10     5     6 1   
    11     5    51 1   
    12     5    52 1   
    13     6     7 ar  
    14     6    11 ar  
    15     7     8 ar  
    16     7    53 1   
    17     8     9 ar  
    18     8    54 1   
    19     9    10 ar  
    20     9    55 1   
    21    10    11 ar  
    22    10    56 1   
    23    11    57 1   
    24    12    13 2   
    25    12    14 1   
    26    14    15 1   
    27    14    58 1   
    28    15    16 1   
    29    15    23 1   
    30    15    59 1   
    31    16    17 ar  
    32    16    21 ar  
    33    17    18 ar  
    34    17    60 1   
    35    18    19 ar  
    36    18    61 1   
    37    19    20 ar  
    38    19    62 1   
    39    20    21 ar  
    40    20    63 1   
    41    21    22 1   
    42    22    23 1   
    43    22    64 1   
    44    22    65 1   
    45    23    24 1   
    46    23    66 1   
    47    24    67 1   
    48    25    26 1   
    49    25    27 1   
    50    25    68 1   
    51    26    69 1   
    52    27    28 1   
    53    27    36 1   
    54    27    70 1   
    55    28    29 1   
    56    29    30 1   
    57    29    71 1   
    58    29    72 1   
    59    30    31 ar  
    60    30    35 ar  
    61    31    32 ar  
    62    31    73 1   
    63    32    33 ar  
    64    32    74 1   
    65    33    34 ar  
    66    33    75 1   
    67    34    35 ar  
    68    34    76 1   
    69    35    77 1   
    70    36    37 2   
    71    36    38 1   
    72    38    39 1   
    73    38    78 1   
    74    39    40 1   
    75    39    79 1   
    76    39    80 1   
    77    40    41 ar  
    78    40    45 ar  
    79    41    42 ar  
    80    41    47 1   
    81    42    43 ar  
    82    42    81 1   
    83    43    44 ar  
    84    43    82 1   
    85    44    45 ar  
    86    44    83 1   
    87    45    46 1   
@<TRIPOS>SUBSTRUCTURE
     1 MSC         1 TEMP              0 ****  ****    0 ROOT
