@<TRIPOS>MOLECULE
MSC
   83    87     1     0     0
SMALL
No Charge or Current Charge


@<TRIPOS>ATOM
      1 C01         -0.7360     0.5420    -0.3180 c3         1 MSC       0.148300
      2 O02         -1.3950     1.3650    -1.3100 oh         1 MSC      -0.712000
      3 C03         -1.0560    -0.9530    -0.5940 c3         1 MSC       0.066300
      4 O04         -0.3010    -1.7400     0.3650 os         1 MSC      -0.422000
      5 C05         -0.2820    -3.1570     0.1220 c3         1 MSC       0.206900
      6 C06          0.6450    -3.8020     1.1420 ca         1 MSC      -0.088300
      7 C07          0.1300    -4.3070     2.3530 ca         1 MSC      -0.089000
      8 C08          0.9890    -4.8990     3.2950 ca         1 MSC      -0.114500
      9 C09          2.3670    -4.9900     3.0330 ca         1 MSC      -0.103000
     10 C10          2.8860    -4.4860     1.8280 ca         1 MSC      -0.114500
     11 C11          2.0270    -3.8930     0.8860 ca         1 MSC      -0.089000
     12 C12         -2.5860    -1.2110    -0.4800 c          1 MSC       0.569100
     13 O13         -3.1430    -1.4610     0.5830 o          1 MSC      -0.573100
     14 N14         -3.2580    -1.2260    -1.6860 ns         1 MSC      -0.488900
     15 C15         -4.7000    -1.4970    -1.7000 c5         1 MSC       0.159000
     16 C16         -5.5800    -0.2710    -1.7220 ca         1 MSC      -0.107300
     17 C17         -5.5000     0.8450    -0.8720 ca         1 MSC      -0.082000
     18 C18         -6.4240     1.8950    -1.0370 ca         1 MSC      -0.113000
     19 C19         -7.4140     1.8170    -2.0390 ca         1 MSC      -0.107000
     20 C20         -7.4830     0.6870    -2.8770 ca         1 MSC      -0.096000
     21 C21         -6.5510    -0.3480    -2.7010 ca         1 MSC      -0.080300
     22 C22         -6.4720    -1.6320    -3.4860 c5         1 MSC      -0.068100
     23 C23         -5.0080    -2.1190    -3.1440 c5         1 MSC       0.154300
     24 O24         -4.0870    -1.6950    -4.1690 oh         1 MSC      -0.663000
     25 C31          0.7970     0.8560    -0.3520 c3         1 MSC       0.139300
     26 O32          1.2420     0.7050    -1.7180 oh         1 MSC      -0.722000
     27 C33          1.1860     2.2820     0.1600 c3         1 MSC       0.075300
     28 O34          0.3190     2.6220     1.2760 os         1 MSC      -0.423000
     29 C35          0.2240     4.0230     1.5960 c3         1 MSC       0.213900
     30 C36         -0.7770     4.1810     2.7320 ca         1 MSC      -0.093300
     31 C37         -0.3600     4.0300     4.0690 ca         1 MSC      -0.088000
     32 C38         -1.2840     4.1730     5.1200 ca         1 MSC      -0.116000
     33 C39         -2.6290     4.4660     4.8400 ca         1 MSC      -0.104000
     34 C40         -3.0510     4.6150     3.5080 ca         1 MSC      -0.116000
     35 C41         -2.1280     4.4730     2.4560 ca         1 MSC      -0.088000
     36 C42          2.7060     2.3510     0.5240 c          1 MSC       0.570100
     37 O43          3.1420     2.8360     1.5620 o          1 MSC      -0.580100
     38 N44          3.5480     1.7680    -0.3970 ns         1 MSC      -0.504900
     39 C45          4.9820     1.5540    -0.2150 c3         1 MSC       0.152300
     40 C46          5.3990     0.2100    -0.8030 ca         1 MSC      -0.148300
     41 C47          6.0830     0.1480    -2.0360 ca         1 MSC       0.188000
     42 C48          6.4640    -1.0860    -2.5860 ca         1 MSC      -0.155000
     43 C49          6.1660    -2.2800    -1.9110 ca         1 MSC      -0.069000
     44 C50          5.4830    -2.2330    -0.6850 ca         1 MSC      -0.124000
     45 C51          5.1000    -0.9980    -0.1330 ca         1 MSC       0.153000
     46 Cl           4.2370    -1.0020     1.4070 cl         1 MSC      -0.174000
     47 F            6.3800     1.2810    -2.7120 f          1 MSC      -0.175000
     48 H011        -1.1180     0.7580     0.6930 h1         1 MSC       0.136700
     49 H021        -1.5230     2.2580    -0.9140 ho         1 MSC       0.492000
     50 H031        -0.7400    -1.2020    -1.6150 h1         1 MSC       0.039700
     51 H051        -1.2890    -3.5850     0.2150 h1         1 MSC       0.034700
     52 H052         0.0850    -3.3720    -0.8900 h1         1 MSC       0.034700
     53 H071        -0.9350    -4.2360     2.5640 ha         1 MSC       0.117000
     54 H081         0.5870    -5.2870     4.2290 ha         1 MSC       0.112000
     55 H091         3.0310    -5.4480     3.7630 ha         1 MSC       0.112000
     56 H101         3.9520    -4.5540     1.6270 ha         1 MSC       0.112000
     57 H111         2.4360    -3.5010    -0.0430 ha         1 MSC       0.117000
     58 H141        -2.7380    -1.0240    -2.5320 hn         1 MSC       0.323500
     59 H151        -5.0250    -2.1880    -0.9090 h1         1 MSC       0.098700
     60 H171        -4.7370     0.9000    -0.0990 ha         1 MSC       0.129000
     61 H181        -6.3740     2.7680    -0.3890 ha         1 MSC       0.114000
     62 H191        -8.1280     2.6280    -2.1620 ha         1 MSC       0.112000
     63 H201        -8.2470     0.6180    -3.6490 ha         1 MSC       0.114000
     64 H221        -6.6330    -1.4890    -4.5610 hc         1 MSC       0.060200
     65 H222        -7.2200    -2.3530    -3.1380 hc         1 MSC       0.060200
     66 H231        -4.9810    -3.2160    -3.0850 h1         1 MSC       0.048700
     67 H241        -4.3850    -2.1070    -5.0090 ho         1 MSC       0.447000
     68 H311         1.3050     0.1310     0.3020 h1         1 MSC       0.121700
     69 H321         0.4410     0.9130    -2.2580 ho         1 MSC       0.495000
     70 H331         1.0220     2.9890    -0.6640 h1         1 MSC       0.043700
     71 H351         1.1940     4.4300     1.9090 h1         1 MSC       0.037700
     72 H352        -0.1170     4.5970     0.7250 h1         1 MSC       0.037700
     73 H371         0.6790     3.7990     4.2930 ha         1 MSC       0.119000
     74 H381        -0.9560     4.0550     6.1510 ha         1 MSC       0.112500
     75 H391        -3.3430     4.5760     5.6530 ha         1 MSC       0.110000
     76 H401        -4.0920     4.8410     3.2890 ha         1 MSC       0.112500
     77 H411        -2.4630     4.5880     1.4280 ha         1 MSC       0.119000
     78 H441         3.0910     1.3430    -1.2020 hn         1 MSC       0.324500
     79 H451         5.5250     2.3780    -0.6950 h1         1 MSC       0.075700
     80 H452         5.2330     1.5790     0.8540 h1         1 MSC       0.075700
     81 H481         6.9910    -1.1130    -3.5370 ha         1 MSC       0.137000
     82 H491         6.4600    -3.2380    -2.3360 ha         1 MSC       0.124000
     83 H501         5.2490    -3.1550    -0.1610 ha         1 MSC       0.135000
@<TRIPOS>BOND
     1     1     2 1   
     2     1     3 1   
     3     1    25 1   
     4     1    48 1   
     5     2    49 1   
     6     3     4 1   
     7     3    12 1   
     8     3    50 1   
     9     4     5 1   
    10     5     6 1   
    11     5    51 1   
    12     5    52 1   
    13     6     7 ar  
    14     6    11 ar  
    15     7     8 ar  
    16     7    53 1   
    17     8     9 ar  
    18     8    54 1   
    19     9    10 ar  
    20     9    55 1   
    21    10    11 ar  
    22    10    56 1   
    23    11    57 1   
    24    12    13 2   
    25    12    14 1   
    26    14    15 1   
    27    14    58 1   
    28    15    16 1   
    29    15    23 1   
    30    15    59 1   
    31    16    17 ar  
    32    16    21 ar  
    33    17    18 ar  
    34    17    60 1   
    35    18    19 ar  
    36    18    61 1   
    37    19    20 ar  
    38    19    62 1   
    39    20    21 ar  
    40    20    63 1   
    41    21    22 1   
    42    22    23 1   
    43    22    64 1   
    44    22    65 1   
    45    23    24 1   
    46    23    66 1   
    47    24    67 1   
    48    25    26 1   
    49    25    27 1   
    50    25    68 1   
    51    26    69 1   
    52    27    28 1   
    53    27    36 1   
    54    27    70 1   
    55    28    29 1   
    56    29    30 1   
    57    29    71 1   
    58    29    72 1   
    59    30    31 ar  
    60    30    35 ar  
    61    31    32 ar  
    62    31    73 1   
    63    32    33 ar  
    64    32    74 1   
    65    33    34 ar  
    66    33    75 1   
    67    34    35 ar  
    68    34    76 1   
    69    35    77 1   
    70    36    37 2   
    71    36    38 1   
    72    38    39 1   
    73    38    78 1   
    74    39    40 1   
    75    39    79 1   
    76    39    80 1   
    77    40    41 ar  
    78    40    45 ar  
    79    41    42 ar  
    80    41    47 1   
    81    42    43 ar  
    82    42    81 1   
    83    43    44 ar  
    84    43    82 1   
    85    44    45 ar  
    86    44    83 1   
    87    45    46 1   
@<TRIPOS>SUBSTRUCTURE
     1 MSC         1 TEMP              0 ****  ****    0 ROOT
