@<TRIPOS>MOLECULE
MSD
   45    47     1     0     0
SMALL
abcg2


@<TRIPOS>ATOM
      1 C2           1.0330     0.5720    -5.1750 ca         1 MSD      -0.108000
      2 C3          -0.2500     0.1130    -4.8820 ca         1 MSD       0.417900
      3 N4          -0.7380     0.0690    -3.6580 nb         1 MSD      -0.666000
      4 C5           0.0350     0.4580    -2.6550 ca         1 MSD       0.521900
      5 C6           1.3350     0.9440    -2.8410 ca         1 MSD      -0.214000
      6 C7           1.8370     1.0060    -4.1180 ca         1 MSD      -0.009000
      7 N8          -0.4760     0.4450    -1.3720 ns         1 MSD      -0.470400
      8 C9          -1.3740    -0.4340    -0.8140 cs         1 MSD       0.478400
      9 S10         -1.7390    -1.9230    -1.4580 s          1 MSD      -0.543400
     10 N11         -1.8890     0.0340     0.3270 ns         1 MSD      -0.415900
     11 C12         -2.6040    -0.7430     1.2800 cx         1 MSD       0.069700
     12 C13         -3.2080    -0.0400     2.4430 cx         1 MSD      -0.127400
     13 C14         -2.0320    -0.9500     2.6640 cx         1 MSD      -0.060400
     14 C15         -0.7000    -0.3850     3.0060 ca         1 MSD      -0.182300
     15 C16         -0.5290     0.5310     4.0510 ca         1 MSD       0.226100
     16 C18          0.7270     1.0980     4.3160 ca         1 MSD      -0.268000
     17 C19          1.8080     0.7250     3.5540 ca         1 MSD       0.021000
     18 C20          1.7010    -0.2230     2.5330 ca         1 MSD      -0.351600
     19 C21          0.4280    -0.7950     2.2890 ca         1 MSD       0.258100
     20 O22          0.2620    -1.7380     1.3710 oh         1 MSD      -0.523100
     21 C23          2.8500    -0.6260     1.7280 c          1 MSD       0.602700
     22 O24          2.7320    -1.4670     0.8350 o          1 MSD      -0.570100
     23 C25          4.1890    -0.0020     1.9920 c3         1 MSD      -0.189100
     24 O41         -1.6180     0.8160     4.7660 os         1 MSD      -0.328100
     25 C42          1.4940     0.6050    -6.5190 cg         1 MSD       0.332000
     26 N43          1.8630     0.6290    -7.6110 n1         1 MSD      -0.449000
     27 C44         -1.5410     1.7780     5.8040 c3         1 MSD       0.145900
     28 HC3         -0.9060    -0.2130    -5.6810 h4         1 MSD       0.038100
     29 HC6          1.9380     1.2560    -1.9980 ha         1 MSD       0.126000
     30 HC7          2.8380     1.3720    -4.2990 ha         1 MSD       0.131000
     31 HN8         -0.0280     1.0870    -0.7330 hn         1 MSD       0.310500
     32 H11N        -1.7120     0.9990     0.5690 hn         1 MSD       0.303500
     33 H12C        -3.1380    -1.5710     0.8350 h1         1 MSD       0.135700
     34 H131        -4.1830    -0.3620     2.7840 hc         1 MSD       0.078700
     35 H132        -3.0450     1.0280     2.5260 hc         1 MSD       0.078700
     36 H14C        -2.2600    -1.9180     3.1010 hc         1 MSD       0.101700
     37 H18C         0.8640     1.8180     5.1100 ha         1 MSD       0.126000
     38 H19C         2.7660     1.1800     3.7680 ha         1 MSD       0.113000
     39 H22O         1.1340    -1.8690     0.9280 ho         1 MSD       0.521000
     40 H251         4.9280    -0.3890     1.2950 hc         1 MSD       0.065367
     41 H252         4.1420     1.0830     1.8890 hc         1 MSD       0.065367
     42 H253         4.5220    -0.2130     3.0090 hc         1 MSD       0.065367
     43 H441        -2.5430     1.8600     6.2170 h1         1 MSD       0.047033
     44 H442        -0.8580     1.4670     6.5970 h1         1 MSD       0.047033
     45 H443        -1.2320     2.7560     5.4300 h1         1 MSD       0.047033
@<TRIPOS>BOND
     1     1     2 ar  
     2     1     6 ar  
     3     1    25 1   
     4     2     3 ar  
     5     2    28 1   
     6     3     4 ar  
     7     4     5 ar  
     8     4     7 1   
     9     5     6 ar  
    10     5    29 1   
    11     6    30 1   
    12     7     8 1   
    13     7    31 1   
    14     8     9 2   
    15     8    10 1   
    16    10    11 1   
    17    10    32 1   
    18    11    12 1   
    19    11    13 1   
    20    11    33 1   
    21    12    13 1   
    22    12    34 1   
    23    12    35 1   
    24    13    14 1   
    25    13    36 1   
    26    14    15 ar  
    27    14    19 ar  
    28    15    16 ar  
    29    15    24 1   
    30    16    17 ar  
    31    16    37 1   
    32    17    18 ar  
    33    17    38 1   
    34    18    19 ar  
    35    18    21 1   
    36    19    20 1   
    37    20    39 1   
    38    21    22 2   
    39    21    23 1   
    40    23    40 1   
    41    23    41 1   
    42    23    42 1   
    43    24    27 1   
    44    25    26 3   
    45    27    43 1   
    46    27    44 1   
    47    27    45 1   
@<TRIPOS>SUBSTRUCTURE
     1 MSD         1 TEMP              0 ****  ****    0 ROOT
