@<TRIPOS>MOLECULE
MSD
   45    47     1     0     0
SMALL
No Charge or Current Charge


@<TRIPOS>ATOM
      1 C2           0.7810     0.7980    -5.4220 ca         1 MSD      -0.108000
      2 C3          -0.5570     0.4940    -5.1160 ca         1 MSD       0.417900
      3 N4          -1.0160     0.3740    -3.8480 nb         1 MSD      -0.666000
      4 C5          -0.1280     0.5310    -2.8520 ca         1 MSD       0.521900
      5 C6           1.2170     0.8690    -3.0550 ca         1 MSD      -0.214000
      6 C7           1.6930     0.9950    -4.3700 ca         1 MSD      -0.009000
      7 N8          -0.6750     0.4630    -1.5740 ns         1 MSD      -0.470400
      8 C9          -1.4250    -0.4940    -0.9640 cs         1 MSD       0.478400
      9 S10         -1.7870    -1.9850    -1.6340 s          1 MSD      -0.543400
     10 N11         -1.7840    -0.1130     0.2990 ns         1 MSD      -0.415900
     11 C12         -2.4880    -0.9290     1.2570 cx         1 MSD       0.069700
     12 C13         -3.1770    -0.2050     2.3820 cx         1 MSD      -0.127400
     13 C14         -1.9350    -1.0240     2.6670 cx         1 MSD      -0.060400
     14 C15         -0.5970    -0.4160     3.0480 ca         1 MSD      -0.182300
     15 C16         -0.5140     0.6200     4.0030 ca         1 MSD       0.226100
     16 C18          0.7390     1.1740     4.3230 ca         1 MSD      -0.268000
     17 C19          1.9080     0.6990     3.7190 ca         1 MSD       0.021000
     18 C20          1.8560    -0.3610     2.7890 ca         1 MSD      -0.351600
     19 C21          0.5940    -0.9150     2.4720 ca         1 MSD       0.258100
     20 O22          0.5210    -1.9630     1.6060 oh         1 MSD      -0.523100
     21 C23          3.1320    -0.8840     2.1560 c          1 MSD       0.602700
     22 O24          3.0930    -1.8090     1.3520 o          1 MSD      -0.570100
     23 C25          4.4820    -0.2640     2.5130 c3         1 MSD      -0.189100
     24 O41         -1.6730     1.0580     4.6190 os         1 MSD      -0.328100
     25 C42          1.1920     0.9120    -6.7880 cg         1 MSD       0.332000
     26 N43          1.5360     1.0090    -7.8990 n1         1 MSD      -0.449000
     27 C44         -1.6810     2.1080     5.6020 c3         1 MSD       0.145900
     28 HC3         -1.2910     0.3480    -5.9080 h4         1 MSD       0.038100
     29 HC6          1.8790     1.0210    -2.2070 ha         1 MSD       0.126000
     30 HC7          2.7360     1.2440    -4.5630 ha         1 MSD       0.131000
     31 HN8         -0.4600     1.2750    -1.0150 hn         1 MSD       0.310500
     32 H11N        -1.4850     0.8060     0.6000 hn         1 MSD       0.303500
     33 H12C        -2.9810    -1.8100     0.8430 h1         1 MSD       0.135700
     34 H131        -4.1300    -0.5980     2.7260 hc         1 MSD       0.078700
     35 H132        -3.1030     0.8790     2.4020 hc         1 MSD       0.078700
     36 H14C        -2.0980    -1.9720     3.1760 hc         1 MSD       0.101700
     37 H18C         0.8310     1.9770     5.0470 ha         1 MSD       0.126000
     38 H19C         2.8500     1.1630     4.0020 ha         1 MSD       0.113000
     39 H22O         1.4530    -2.1380     1.3210 ho         1 MSD       0.521000
     40 H251         5.3150    -0.7370     1.9790 hc         1 MSD       0.065367
     41 H252         4.4450     0.8140     2.3180 hc         1 MSD       0.065367
     42 H253         4.6250    -0.3130     3.5980 hc         1 MSD       0.065367
     43 H441        -2.7050     2.2910     5.9520 h1         1 MSD       0.047033
     44 H442        -1.0700     1.8330     6.4710 h1         1 MSD       0.047033
     45 H443        -1.2950     3.0430     5.1780 h1         1 MSD       0.047033
@<TRIPOS>BOND
     1     1     2 ar  
     2     1     6 ar  
     3     1    25 1   
     4     2     3 ar  
     5     2    28 1   
     6     3     4 ar  
     7     4     5 ar  
     8     4     7 1   
     9     5     6 ar  
    10     5    29 1   
    11     6    30 1   
    12     7     8 1   
    13     7    31 1   
    14     8     9 2   
    15     8    10 1   
    16    10    11 1   
    17    10    32 1   
    18    11    12 1   
    19    11    13 1   
    20    11    33 1   
    21    12    13 1   
    22    12    34 1   
    23    12    35 1   
    24    13    14 1   
    25    13    36 1   
    26    14    15 ar  
    27    14    19 ar  
    28    15    16 ar  
    29    15    24 1   
    30    16    17 ar  
    31    16    37 1   
    32    17    18 ar  
    33    17    38 1   
    34    18    19 ar  
    35    18    21 1   
    36    19    20 1   
    37    20    39 1   
    38    21    22 2   
    39    21    23 1   
    40    23    40 1   
    41    23    41 1   
    42    23    42 1   
    43    24    27 1   
    44    25    26 3   
    45    27    43 1   
    46    27    44 1   
    47    27    45 1   
@<TRIPOS>SUBSTRUCTURE
     1 MSD         1 TEMP              0 ****  ****    0 ROOT
