@<TRIPOS>MOLECULE
MSE
   19    18     1     0     0
SMALL
bcc


@<TRIPOS>ATOM
      1 N           11.2060    -7.3490    19.8580 n8         1 MSE      -0.878800
      2 CA          10.3120    -8.4500    19.5400 c3         1 MSE       0.018500
      3 C            8.9090    -8.2070    20.1500 c          1 MSE       0.938600
      4 O            8.8570    -7.5150    21.1860 o          1 MSE      -0.831800
      5 OXT          7.9570    -8.7700    19.5740 o          1 MSE      -0.831800
      6 CB          10.7940    -9.8380    20.0110 c3         1 MSE      -0.110400
      7 CG          12.0830   -10.2750    19.3360 c3         1 MSE       0.112700
      8 SE          12.7390   -12.0280    19.9230 ss         1 MSE      -0.534200
      9 CE          13.2930   -11.4990    21.7180 c3         1 MSE       0.075000
     10 H           12.1620    -7.5740    19.6130 hn         1 MSE       0.319800
     11 HN2         11.1860    -7.1990    20.8590 hn         1 MSE       0.319800
     12 HA          10.2020    -8.4950    18.4500 h1         1 MSE       0.045700
     13 HB2         10.9230    -9.8110    21.0980 hc         1 MSE       0.056200
     14 HB3         10.0140   -10.5740    19.8000 hc         1 MSE       0.056200
     15 HG2         11.9390   -10.3560    18.2550 h1         1 MSE       0.050200
     16 HG3         12.8930    -9.5600    19.4990 h1         1 MSE       0.050200
     17 HE1         13.7770   -12.3530    22.1900 h1         1 MSE       0.049033
     18 HE2         14.0040   -10.6750    21.6700 h1         1 MSE       0.049033
     19 HE3         12.4380   -11.2050    22.3260 h1         1 MSE       0.049033
@<TRIPOS>BOND
     1     1     2 1   
     2     1    10 1   
     3     1    11 1   
     4     2     3 1   
     5     2     6 1   
     6     2    12 1   
     7     3     4 1   
     8     3     5 1   
     9     6     7 1   
    10     6    13 1   
    11     6    14 1   
    12     7     8 1   
    13     7    15 1   
    14     7    16 1   
    15     8     9 1   
    16     9    17 1   
    17     9    18 1   
    18     9    19 1   
@<TRIPOS>SUBSTRUCTURE
     1 MSE         1 TEMP              0 ****  ****    0 ROOT
