@<TRIPOS>MOLECULE
MSE
   19    18     1     0     0
SMALL
No Charge or Current Charge


@<TRIPOS>ATOM
      1 N           11.2430    -7.3480    19.8090 n8         1 MSE      -0.878800
      2 CA          10.2580    -8.4690    19.5690 c3         1 MSE       0.018500
      3 C            8.7620    -8.2390    20.0690 c          1 MSE       0.938600
      4 O            8.5610    -8.0300    21.2640 o          1 MSE      -0.831800
      5 OXT          7.8600    -8.2080    19.2370 o          1 MSE      -0.831800
      6 CB          10.8270    -9.8040    20.1200 c3         1 MSE      -0.110400
      7 CG          12.1070   -10.2900    19.4050 c3         1 MSE       0.112700
      8 SE          12.6200   -11.9620    20.0210 ss         1 MSE      -0.534200
      9 CE          13.3530   -11.5060    21.6620 c3         1 MSE       0.075000
     10 H           12.1840    -7.6490    19.5400 hn         1 MSE       0.319800
     11 HN2         11.3030    -7.1660    20.8170 hn         1 MSE       0.319800
     12 HA          10.1840    -8.5850    18.4790 h1         1 MSE       0.045700
     13 HB2         11.0140    -9.7060    21.1960 hc         1 MSE       0.056200
     14 HB3         10.0590   -10.5800    20.0060 hc         1 MSE       0.056200
     15 HG2         11.9140   -10.3620    18.3260 h1         1 MSE       0.050200
     16 HG3         12.9300    -9.5800    19.5600 h1         1 MSE       0.050200
     17 HE1         13.7690   -12.4010    22.1420 h1         1 MSE       0.049033
     18 HE2         14.1570   -10.7710    21.5210 h1         1 MSE       0.049033
     19 HE3         12.5830   -11.0780    22.3150 h1         1 MSE       0.049033
@<TRIPOS>BOND
     1     1     2 1   
     2     1    10 1   
     3     1    11 1   
     4     2     3 1   
     5     2     6 1   
     6     2    12 1   
     7     3     4 1   
     8     3     5 1   
     9     6     7 1   
    10     6    13 1   
    11     6    14 1   
    12     7     8 1   
    13     7    15 1   
    14     7    16 1   
    15     8     9 1   
    16     9    17 1   
    17     9    18 1   
    18     9    19 1   
@<TRIPOS>SUBSTRUCTURE
     1 MSE         1 TEMP              0 ****  ****    0 ROOT
