@<TRIPOS>MOLECULE
MSF
   11    10     1     0     0
SMALL
No Charge or Current Charge


@<TRIPOS>ATOM
      1 O5          10.3150    28.6260    24.0470 o          1 MSF      -0.718000
      2 O6           8.4560    29.0720    25.0420 o          1 MSF      -0.718000
      3 C1           9.5380    29.4100    24.5780 c          1 MSF       0.724000
      4 C2           9.9370    30.9130    24.6490 c3         1 MSF       0.016600
      5 SE3         10.8800    31.4010    26.1930 ss         1 MSF      -0.532000
      6 C4          11.1300    33.2020    25.8520 c3         1 MSF       0.069900
      7 H21         10.5510    31.1480    23.7700 h1         1 MSF       0.032700
      8 H22          9.0210    31.5150    24.5890 h1         1 MSF       0.032700
      9 H41         11.6840    33.6620    26.6800 h1         1 MSF       0.030700
     10 H42         11.7000    33.3290    24.9220 h1         1 MSF       0.030700
     11 H43         10.1570    33.6990    25.7490 h1         1 MSF       0.030700
@<TRIPOS>BOND
     1     1     3 1   
     2     2     3 1   
     3     3     4 1   
     4     4     5 1   
     5     4     7 1   
     6     4     8 1   
     7     5     6 1   
     8     6     9 1   
     9     6    10 1   
    10     6    11 1   
@<TRIPOS>SUBSTRUCTURE
     1 MSF         1 TEMP              0 ****  ****    0 ROOT
