@<TRIPOS>MOLECULE
MSF
   11    10     1     0     0
SMALL
abcg2


@<TRIPOS>ATOM
      1 O5           9.2880    28.8820    23.4840 o          1 MSF      -0.718000
      2 O6           9.3110    28.9140    25.7160 o          1 MSF      -0.718000
      3 C1           9.4990    29.4110    24.5890 c          1 MSF       0.724000
      4 C2          10.0560    30.8440    24.5470 c3         1 MSF       0.016600
      5 SE3         10.3520    31.4820    26.3650 ss         1 MSF      -0.532000
      6 C4          11.0290    33.2580    25.8960 c3         1 MSF       0.069900
      7 H21         10.9940    30.8700    23.9850 h1         1 MSF       0.032700
      8 H22          9.3580    31.5080    24.0290 h1         1 MSF       0.032700
      9 H41         11.2550    33.7940    26.8170 h1         1 MSF       0.030700
     10 H42         11.9410    33.1890    25.3030 h1         1 MSF       0.030700
     11 H43         10.2850    33.8270    25.3380 h1         1 MSF       0.030700
@<TRIPOS>BOND
     1     1     3 1   
     2     2     3 1   
     3     3     4 1   
     4     4     5 1   
     5     4     7 1   
     6     4     8 1   
     7     5     6 1   
     8     6     9 1   
     9     6    10 1   
    10     6    11 1   
@<TRIPOS>SUBSTRUCTURE
     1 MSF         1 TEMP              0 ****  ****    0 ROOT
