@<TRIPOS>MOLECULE
MSG
   36    38     1     0     0
SMALL
abcg2


@<TRIPOS>ATOM
      1 O5           4.5620     2.2300     1.0000 oh         1 MSG      -0.701000
      2 C5           4.0130     1.5900    -0.1240 c3         1 MSG       0.164600
      3 C4           3.5410     0.2150     0.2750 c5         1 MSG       0.156300
      4 O4           2.4690     0.3030     1.2210 os         1 MSG      -0.432000
      5 C1           1.4580    -0.6000     0.9220 c5         1 MSG       0.317300
      6 N9           0.2760     0.1460     0.4680 na         1 MSG      -0.071700
      7 C8           0.1930     1.4540     0.2100 cc         1 MSG      -0.090300
      8 N7          -1.0350     1.7720    -0.1430 na         1 MSG       0.080300
      9 C10         -1.4520     3.1200    -0.4930 c3         1 MSG       0.052900
     10 C7          -1.8090     0.6230    -0.1100 cc         1 MSG      -0.273900
     11 C6          -3.1700     0.3130    -0.3770 cs         1 MSG       0.575400
     12 S6          -4.3080     1.4600    -0.8790 s          1 MSG      -0.685400
     13 N1          -3.4980    -0.9750    -0.2030 nc         1 MSG      -0.715100
     14 C2          -2.5940    -1.8810     0.1950 cd         1 MSG       0.890200
     15 N2          -3.0490    -3.1380     0.3770 nv         1 MSG      -1.011200
     16 N3          -1.2970    -1.6690     0.4560 nd         1 MSG      -0.536300
     17 C9          -0.9720    -0.4020     0.2830 cc         1 MSG       0.040000
     18 C11          1.9820    -1.5200    -0.1790 c5         1 MSG       0.107300
     19 O2           2.6480    -2.5770     0.4510 oh         1 MSG      -0.696000
     20 C3           2.9700    -0.5880    -0.8900 c5         1 MSG       0.089300
     21 O3           3.9980    -1.2620    -1.5580 oh         1 MSG      -0.703000
     22 H5           4.8860     3.0930     0.7270 ho         1 MSG       0.510000
     23 H5'1         4.7490     1.4600    -0.9270 h1         1 MSG       0.025200
     24 H5'2         3.1730     2.1550    -0.5510 h1         1 MSG       0.025200
     25 H4           4.3710    -0.3370     0.7310 h1         1 MSG       0.103700
     26 H1           1.1510    -1.1560     1.8110 h2         1 MSG       0.141700
     27 H8           1.0030     2.1590     0.2880 h5         1 MSG       0.206000
     28 H11         -1.8060     3.1410    -1.5180 h1         1 MSG       0.082033
     29 H12         -2.2530     3.4390     0.1650 h1         1 MSG       0.082033
     30 H13         -0.5960     3.7790    -0.3820 h1         1 MSG       0.082033
     31 HN21        -2.3840    -3.8830     0.4830 hn         1 MSG       0.495000
     32 HN22        -3.9500    -3.3790     0.0030 hn         1 MSG       0.495000
     33 H2           1.1840    -1.8750    -0.8410 h1         1 MSG       0.088700
     34 H7           3.3560    -2.8720    -0.1360 ho         1 MSG       0.529000
     35 H3           2.4170     0.0750    -1.5700 h1         1 MSG       0.051700
     36 H6           3.6860    -1.5220    -2.4310 ho         1 MSG       0.523000
@<TRIPOS>BOND
     1     1     2 1   
     2     1    22 1   
     3     2     3 1   
     4     2    23 1   
     5     2    24 1   
     6     3     4 1   
     7     3    20 1   
     8     3    25 1   
     9     4     5 1   
    10     5     6 1   
    11     5    18 1   
    12     5    26 1   
    13     6     7 2   
    14     6    17 1   
    15     7     8 1   
    16     7    27 1   
    17     8     9 1   
    18     8    10 2   
    19     9    28 1   
    20     9    29 1   
    21     9    30 1   
    22    10    11 1   
    23    10    17 1   
    24    11    12 2   
    25    11    13 1   
    26    13    14 2   
    27    14    15 1   
    28    14    16 1   
    29    15    31 1   
    30    15    32 1   
    31    16    17 2   
    32    18    19 1   
    33    18    20 1   
    34    18    33 1   
    35    19    34 1   
    36    20    21 1   
    37    20    35 1   
    38    21    36 1   
@<TRIPOS>SUBSTRUCTURE
     1 MSG         1 TEMP              0 ****  ****    0 ROOT
