@<TRIPOS>MOLECULE
MSG
   36    38     1     0     0
SMALL
No Charge or Current Charge


@<TRIPOS>ATOM
      1 O5           4.5390     1.0710     2.5150 oh         1 MSG      -0.701000
      2 C5           4.2860     1.2540     1.1100 c3         1 MSG       0.164600
      3 C4           3.5410     0.0330     0.5030 c5         1 MSG       0.156300
      4 O4           2.1710    -0.0110     0.9650 os         1 MSG      -0.432000
      5 C1           1.3920    -0.8090     0.0310 c5         1 MSG       0.317300
      6 N9           0.1200    -0.1180    -0.2340 na         1 MSG      -0.071700
      7 C8          -0.1270     0.9140    -1.1480 cc         1 MSG      -0.090300
      8 N7          -1.4870     1.2600    -1.1430 na         1 MSG       0.080300
      9 C10         -2.1090     2.3080    -1.9630 c3         1 MSG       0.052900
     10 C7          -2.1000     0.4150    -0.2320 cc         1 MSG      -0.273900
     11 C6          -3.4640     0.3190     0.1550 cs         1 MSG       0.575400
     12 S6          -4.7720     1.2120    -0.3780 s          1 MSG      -0.685400
     13 N1          -3.6180    -0.6720     1.0870 nc         1 MSG      -0.715100
     14 C2          -2.6290    -1.4130     1.5530 cd         1 MSG       0.890200
     15 N2          -2.9730    -2.3300     2.4340 nv         1 MSG      -1.011200
     16 N3          -1.2890    -1.3460     1.1830 nd         1 MSG      -0.536300
     17 C9          -1.1160    -0.3960     0.2890 cc         1 MSG       0.040000
     18 C11          2.3170    -1.0620    -1.2190 c5         1 MSG       0.107300
     19 O2           2.9900    -2.3310    -1.1890 oh         1 MSG      -0.696000
     20 C3           3.3770     0.0630    -1.0470 c5         1 MSG       0.089300
     21 O3           4.5800    -0.2600    -1.7710 oh         1 MSG      -0.703000
     22 H5           4.9520     1.9030     2.8450 ho         1 MSG       0.510000
     23 H5'1         5.2360     1.3850     0.5760 h1         1 MSG       0.025200
     24 H5'2         3.6840     2.1580     0.9410 h1         1 MSG       0.025200
     25 H4           4.0560    -0.8840     0.8220 h1         1 MSG       0.103700
     26 H1           1.1270    -1.7720     0.4840 h2         1 MSG       0.141700
     27 H8           0.6240     1.3930    -1.7670 h5         1 MSG       0.206000
     28 H11         -2.8660     1.8620    -2.6180 h1         1 MSG       0.082033
     29 H12         -2.5810     3.0530    -1.3110 h1         1 MSG       0.082033
     30 H13         -1.3480     2.8020    -2.5780 h1         1 MSG       0.082033
     31 HN21        -2.3290    -3.1060     2.4840 hn         1 MSG       0.495000
     32 HN22        -3.9530    -2.5670     2.4060 hn         1 MSG       0.495000
     33 H2           1.7590    -0.9460    -2.1600 h1         1 MSG       0.088700
     34 H7           3.8960    -2.1050    -1.5270 ho         1 MSG       0.529000
     35 H3           2.9730     1.0310    -1.3760 h1         1 MSG       0.051700
     36 H6           5.0520     0.5860    -1.9680 ho         1 MSG       0.523000
@<TRIPOS>BOND
     1     1     2 1   
     2     1    22 1   
     3     2     3 1   
     4     2    23 1   
     5     2    24 1   
     6     3     4 1   
     7     3    20 1   
     8     3    25 1   
     9     4     5 1   
    10     5     6 1   
    11     5    18 1   
    12     5    26 1   
    13     6     7 2   
    14     6    17 1   
    15     7     8 1   
    16     7    27 1   
    17     8     9 1   
    18     8    10 2   
    19     9    28 1   
    20     9    29 1   
    21     9    30 1   
    22    10    11 1   
    23    10    17 1   
    24    11    12 2   
    25    11    13 1   
    26    13    14 2   
    27    14    15 1   
    28    14    16 1   
    29    15    31 1   
    30    15    32 1   
    31    16    17 2   
    32    18    19 1   
    33    18    20 1   
    34    18    33 1   
    35    19    34 1   
    36    20    21 1   
    37    20    35 1   
    38    21    36 1   
@<TRIPOS>SUBSTRUCTURE
     1 MSG         1 TEMP              0 ****  ****    0 ROOT
