@<TRIPOS>MOLECULE
MSH
   26    25     1     0     0
SMALL
No Charge or Current Charge


@<TRIPOS>ATOM
      1 S1           0.9780     0.0750    -0.8180 s6         1 MSH       1.060000
      2 O2           1.9110    -0.7460    -0.0370 o          1 MSH      -0.519500
      3 O3           0.9820    -0.0570    -2.2790 o          1 MSH      -0.519500
      4 C4           1.3300     1.7950    -0.4440 c3         1 MSH      -0.329100
      5 C5          -2.1790    -0.5850    -2.3480 c3         1 MSH      -0.098100
      6 C6          -1.8360     0.3300    -1.1510 c3         1 MSH      -0.049400
      7 C7          -0.7330    -0.2270    -0.1920 c3         1 MSH      -0.254700
      8 C8          -0.9720     0.2830     1.2690 c3         1 MSH      -0.066400
      9 C9          -0.0840    -0.3510     2.3670 c3         1 MSH      -0.084400
     10 C10         -0.5260     0.0380     3.7920 c3         1 MSH      -0.088100
     11 HC41         2.3090     2.0310    -0.8750 h1         1 MSH       0.101700
     12 HC42         0.5440     2.4070    -0.8980 h1         1 MSH       0.101700
     13 HC43         1.3460     1.9110     0.6440 h1         1 MSH       0.101700
     14 HC51        -3.0200    -0.1650    -2.9130 hc         1 MSH       0.046367
     15 HC52        -1.3380    -0.6950    -3.0400 hc         1 MSH       0.046367
     16 HC53        -2.4720    -1.5830    -2.0000 hc         1 MSH       0.046367
     17 HC61        -2.7680     0.4680    -0.5880 hc         1 MSH       0.044200
     18 HC62        -1.5570     1.3270    -1.5140 hc         1 MSH       0.044200
     19 HC71        -0.8190    -1.3190    -0.1780 h1         1 MSH       0.108700
     20 HC81        -2.0150     0.0680     1.5360 hc         1 MSH       0.047700
     21 HC82        -0.8740     1.3750     1.3060 hc         1 MSH       0.047700
     22 HC91         0.9580    -0.0350     2.2420 hc         1 MSH       0.053700
     23 HC92        -0.1070    -1.4440     2.2730 hc         1 MSH       0.053700
     24 H101         0.1350    -0.4230     4.5360 hc         1 MSH       0.035033
     25 H102        -0.4870     1.1260     3.9270 hc         1 MSH       0.035033
     26 H103        -1.5500    -0.3000     3.9880 hc         1 MSH       0.035033
@<TRIPOS>BOND
     1     1     2 2   
     2     1     3 2   
     3     1     4 1   
     4     1     7 1   
     5     4    11 1   
     6     4    12 1   
     7     4    13 1   
     8     5     6 1   
     9     5    14 1   
    10     5    15 1   
    11     5    16 1   
    12     6     7 1   
    13     6    17 1   
    14     6    18 1   
    15     7     8 1   
    16     7    19 1   
    17     8     9 1   
    18     8    20 1   
    19     8    21 1   
    20     9    10 1   
    21     9    22 1   
    22     9    23 1   
    23    10    24 1   
    24    10    25 1   
    25    10    26 1   
@<TRIPOS>SUBSTRUCTURE
     1 MSH         1 TEMP              0 ****  ****    0 ROOT
