@<TRIPOS>MOLECULE
MSH
   26    25     1     0     0
SMALL
bcc


@<TRIPOS>ATOM
      1 S1           0.9370     0.0790    -0.8010 s6         1 MSH       0.980000
      2 O2           1.8820    -0.7740    -0.0750 o          1 MSH      -0.590300
      3 O3           0.9520    -0.0150    -2.2630 o          1 MSH      -0.590300
      4 C4           1.2700     1.7780    -0.3740 c3         1 MSH      -0.218300
      5 C5          -2.1800    -0.5840    -2.2940 c3         1 MSH      -0.098100
      6 C6          -1.7900     0.3410    -1.1500 c3         1 MSH      -0.049400
      7 C7          -0.7400    -0.2440    -0.1940 c3         1 MSH      -0.143900
      8 C8          -0.9420     0.2420     1.2440 c3         1 MSH      -0.066400
      9 C9          -0.0530    -0.3530     2.3300 c3         1 MSH      -0.084400
     10 C10         -0.5270     0.0650     3.7160 c3         1 MSH      -0.088100
     11 HC41         2.2260     2.0260    -0.8320 h1         1 MSH       0.101700
     12 HC42         0.4930     2.4240    -0.7770 h1         1 MSH       0.101700
     13 HC43         1.3380     1.8970     0.7040 h1         1 MSH       0.101700
     14 HC51        -2.9610    -0.1270    -2.9020 hc         1 MSH       0.046367
     15 HC52        -1.3370    -0.8090    -2.9440 hc         1 MSH       0.046367
     16 HC53        -2.5710    -1.5280    -1.9100 hc         1 MSH       0.046367
     17 HC61        -2.6800     0.5540    -0.5550 hc         1 MSH       0.044200
     18 HC62        -1.4680     1.3110    -1.5390 hc         1 MSH       0.044200
     19 HC71        -0.7900    -1.3390    -0.2120 h1         1 MSH       0.108700
     20 HC81        -1.9800    -0.0110     1.4810 hc         1 MSH       0.047700
     21 HC82        -0.8990     1.3360     1.2760 hc         1 MSH       0.047700
     22 HC91         0.9860    -0.0490     2.2030 hc         1 MSH       0.053700
     23 HC92        -0.0630    -1.4430     2.2470 hc         1 MSH       0.053700
     24 H101         0.1070    -0.3610     4.4940 hc         1 MSH       0.035033
     25 H102        -0.5030     1.1510     3.8290 hc         1 MSH       0.035033
     26 H103        -1.5500    -0.2640     3.9030 hc         1 MSH       0.035033
@<TRIPOS>BOND
     1     1     2 2   
     2     1     3 2   
     3     1     4 1   
     4     1     7 1   
     5     4    11 1   
     6     4    12 1   
     7     4    13 1   
     8     5     6 1   
     9     5    14 1   
    10     5    15 1   
    11     5    16 1   
    12     6     7 1   
    13     6    17 1   
    14     6    18 1   
    15     7     8 1   
    16     7    19 1   
    17     8     9 1   
    18     8    20 1   
    19     8    21 1   
    20     9    10 1   
    21     9    22 1   
    22     9    23 1   
    23    10    24 1   
    24    10    25 1   
    25    10    26 1   
@<TRIPOS>SUBSTRUCTURE
     1 MSH         1 TEMP              0 ****  ****    0 ROOT
