@<TRIPOS>MOLECULE
MSI
   48    51     1     0     0
SMALL
bcc


@<TRIPOS>ATOM
      1 S1          -1.6120     1.6200     0.0870 sy         1 MSI       1.308200
      2 N1           0.4160    -0.7230     5.1060 n          1 MSI      -0.378000
      3 N2          -1.8880     0.3360    -0.8990 n3         1 MSI      -0.739500
      4 O4          -2.8930     2.2610     0.3260 o          1 MSI      -0.602800
      5 O5          -0.5140     2.3730    -0.4990 o          1 MSI      -0.602800
      6 C2           1.7630    -0.8060     4.9090 c          1 MSI       0.604500
      7 C3           2.0260    -0.2310     3.4970 c          1 MSI       0.515700
      8 C4           0.3170     0.7180     1.8070 ca         1 MSI       0.076000
      9 C5          -1.0420     0.9650     1.6310 ca         1 MSI      -0.358500
     10 C6          -1.9600     0.6690     2.6390 ca         1 MSI       0.030000
     11 C7          -1.5590     0.0960     3.8390 ca         1 MSI      -0.204000
     12 C8          -0.2120    -0.1660     4.0030 ca         1 MSI       0.154600
     13 C9           0.7100     0.1470     2.9970 ca         1 MSI      -0.268600
     14 C20         -0.7340    -0.3590    -1.5060 c5         1 MSI       0.220500
     15 C10         -1.1550    -1.8340    -1.5200 c5         1 MSI      -0.082400
     16 C11         -2.1690    -1.9410    -0.3890 c5         1 MSI      -0.106400
     17 C12         -2.9310    -0.6330    -0.5120 c5         1 MSI       0.201800
     18 C13         -0.4740     0.2140    -2.8860 c3         1 MSI       0.137400
     19 C14          0.9920    -0.2290    -4.7030 ca         1 MSI       0.143100
     20 C15          2.0380    -1.0000    -5.2140 ca         1 MSI      -0.187500
     21 C16          2.5160    -0.7600    -6.4900 ca         1 MSI      -0.092000
     22 C17          1.9640     0.2470    -7.2770 ca         1 MSI      -0.165000
     23 C18          0.9270     1.0090    -6.7640 ca         1 MSI      -0.092000
     24 C19          0.4350     0.7810    -5.4830 ca         1 MSI      -0.187500
     25 HC4          1.0510     0.9730     1.0530 ha         1 MSI       0.173000
     26 HC6         -3.0090     0.8960     2.5030 ha         1 MSI       0.157000
     27 HC7         -2.2890    -0.1200     4.6060 ha         1 MSI       0.152000
     28 H20          0.1630    -0.2490    -0.8860 h1         1 MSI       0.063700
     29 H101        -0.3000    -2.4960    -1.3960 hc         1 MSI       0.066200
     30 H102        -1.6290    -2.0820    -2.4730 hc         1 MSI       0.066200
     31 H111        -1.6630    -1.9900     0.5790 hc         1 MSI       0.057200
     32 H112        -2.8170    -2.8120    -0.4750 hc         1 MSI       0.057200
     33 H121        -3.4410    -0.3420     0.4050 h1         1 MSI       0.064700
     34 H122        -3.6840    -0.6810    -1.3000 h1         1 MSI       0.064700
     35 H131        -1.3850     0.1240    -3.4900 h1         1 MSI       0.057700
     36 H132        -0.2120     1.2740    -2.8200 h1         1 MSI       0.057700
     37 HC15         2.4690    -1.7830    -4.6030 ha         1 MSI       0.140000
     38 HC16         3.3280    -1.3650    -6.8740 ha         1 MSI       0.130500
     39 HC17         2.3390     0.4310    -8.2750 ha         1 MSI       0.133000
     40 HC18         0.4840     1.7950    -7.3620 ha         1 MSI       0.130500
     41 HC19        -0.3760     1.3960    -5.1150 ha         1 MSI       0.140000
     42 HC11         0.4400    -1.5660     6.9950 h1         1 MSI       0.055700
     43 HC12        -0.7600    -0.2850     6.7810 h1         1 MSI       0.055700
     44 HC13        -1.0300    -1.8890     6.0690 h1         1 MSI       0.055700
     45 C1          -0.2780    -1.1370     6.3030 c3         1 MSI       0.089300
     46 O1           0.5870    -0.5290    -3.4510 os         1 MSI      -0.331900
     47 O2           2.5970    -1.2330     5.6640 o          1 MSI      -0.528500
     48 O3           3.1140    -0.1500     2.9960 o          1 MSI      -0.430100
@<TRIPOS>BOND
     1     1     3 1   
     2     1     4 2   
     3     1     5 2   
     4     1     9 1   
     5     2     6 1   
     6     2    12 1   
     7     2    45 1   
     8     3    14 1   
     9     3    17 1   
    10     6     7 1   
    11     6    47 2   
    12     7    13 1   
    13     7    48 2   
    14     8     9 ar  
    15     8    13 ar  
    16     8    25 1   
    17     9    10 ar  
    18    10    11 ar  
    19    10    26 1   
    20    11    12 ar  
    21    11    27 1   
    22    12    13 ar  
    23    14    15 1   
    24    14    18 1   
    25    14    28 1   
    26    15    16 1   
    27    15    29 1   
    28    15    30 1   
    29    16    17 1   
    30    16    31 1   
    31    16    32 1   
    32    17    33 1   
    33    17    34 1   
    34    18    35 1   
    35    18    36 1   
    36    18    46 1   
    37    19    20 ar  
    38    19    24 ar  
    39    19    46 1   
    40    20    21 ar  
    41    20    37 1   
    42    21    22 ar  
    43    21    38 1   
    44    22    23 ar  
    45    22    39 1   
    46    23    24 ar  
    47    23    40 1   
    48    24    41 1   
    49    42    45 1   
    50    43    45 1   
    51    44    45 1   
@<TRIPOS>SUBSTRUCTURE
     1 MSI         1 TEMP              0 ****  ****    0 ROOT
