@<TRIPOS>MOLECULE
MSI
   48    51     1     0     0
SMALL
No Charge or Current Charge


@<TRIPOS>ATOM
      1 S1           0.5290     0.6150     0.1050 sy         1 MSI       1.166600
      2 N1          -0.9670     0.0020     5.8730 n          1 MSI      -0.311000
      3 N2          -0.2910    -0.7010    -0.5900 n3         1 MSI      -0.739500
      4 O4          -0.0950     1.8200    -0.4510 o          1 MSI      -0.532000
      5 O5           1.9630     0.3370    -0.0190 o          1 MSI      -0.532000
      6 C2           0.1550    -0.6210     6.4450 c          1 MSI       0.462000
      7 C3           1.1900    -0.7610     5.2700 c          1 MSI       0.515700
      8 C4           0.9380    -0.0690     2.7670 ca         1 MSI       0.094000
      9 C5           0.0450     0.4880     1.8260 ca         1 MSI      -0.358500
     10 C6          -1.2500     0.9100     2.2170 ca         1 MSI       0.048000
     11 C7          -1.6590     0.7990     3.5610 ca         1 MSI      -0.186000
     12 C8          -0.7450     0.3070     4.4980 ca         1 MSI       0.154600
     13 C9           0.5030    -0.1590     4.0940 ca         1 MSI      -0.268600
     14 C20          0.0510    -1.1530    -1.9580 c5         1 MSI       0.220500
     15 C10         -1.0840    -2.1870    -2.1530 c5         1 MSI      -0.082400
     16 C11         -1.0240    -2.9780    -0.8200 c5         1 MSI      -0.106400
     17 C12         -0.4630    -1.9440     0.2000 c5         1 MSI       0.201800
     18 C13          0.0770    -0.0530    -3.0580 c3         1 MSI       0.160600
     19 C14          0.3590     0.0360    -5.5090 ca         1 MSI       0.143100
     20 C15          0.5740    -0.6740    -6.7020 ca         1 MSI      -0.169500
     21 C16          0.6470     0.0050    -7.9310 ca         1 MSI      -0.074000
     22 C17          0.5040     1.4020    -7.9680 ca         1 MSI      -0.147000
     23 C18          0.2890     2.1190    -6.7800 ca         1 MSI      -0.074000
     24 C19          0.2160     1.4410    -5.5500 ca         1 MSI      -0.169500
     25 HC4          1.9240    -0.4360     2.4790 ha         1 MSI       0.155000
     26 HC6         -1.9460     1.3070     1.4780 ha         1 MSI       0.139000
     27 HC7         -2.6600     1.0980     3.8600 ha         1 MSI       0.134000
     28 H20          1.0330    -1.6480    -1.9660 h1         1 MSI       0.063700
     29 H101        -0.9250    -2.8290    -3.0270 hc         1 MSI       0.066200
     30 H102        -2.0540    -1.6920    -2.2800 hc         1 MSI       0.066200
     31 H111        -0.3560    -3.8430    -0.8970 hc         1 MSI       0.057200
     32 H112        -2.0090    -3.3550    -0.5250 hc         1 MSI       0.057200
     33 H121         0.4960    -2.2930     0.6090 h1         1 MSI       0.064700
     34 H122        -1.1510    -1.8010     1.0440 h1         1 MSI       0.064700
     35 H131        -0.8800     0.4850    -3.0480 h1         1 MSI       0.057700
     36 H132         0.8830     0.6590    -2.8420 h1         1 MSI       0.057700
     37 HC15         0.6850    -1.7550    -6.6730 ha         1 MSI       0.122000
     38 HC16         0.8140    -0.5510    -8.8520 ha         1 MSI       0.112500
     39 HC17         0.5600     1.9290    -8.9190 ha         1 MSI       0.115000
     40 HC18         0.1790     3.2010    -6.8110 ha         1 MSI       0.112500
     41 HC19         0.0490     2.0190    -4.6460 ha         1 MSI       0.122000
     42 HC11        -2.0630     0.1400     7.6900 h1         1 MSI       0.055700
     43 HC12        -2.1220     1.5920     6.6500 h1         1 MSI       0.055700
     44 HC13        -3.0500     0.1310     6.2030 h1         1 MSI       0.055700
     45 C1          -2.1180     0.4950     6.6530 c3         1 MSI       0.089300
     46 O1           0.2970    -0.6850    -4.3350 os         1 MSI      -0.355100
     47 O2           0.2980    -0.9580     7.6170 o          1 MSI      -0.453000
     48 O3           2.3120    -1.2580     5.3040 o          1 MSI      -0.430100
@<TRIPOS>BOND
     1     1     3 1   
     2     1     4 2   
     3     1     5 2   
     4     1     9 1   
     5     2     6 1   
     6     2    12 1   
     7     2    45 1   
     8     3    14 1   
     9     3    17 1   
    10     6     7 1   
    11     6    47 2   
    12     7    13 1   
    13     7    48 2   
    14     8     9 ar  
    15     8    13 ar  
    16     8    25 1   
    17     9    10 ar  
    18    10    11 ar  
    19    10    26 1   
    20    11    12 ar  
    21    11    27 1   
    22    12    13 ar  
    23    14    15 1   
    24    14    18 1   
    25    14    28 1   
    26    15    16 1   
    27    15    29 1   
    28    15    30 1   
    29    16    17 1   
    30    16    31 1   
    31    16    32 1   
    32    17    33 1   
    33    17    34 1   
    34    18    35 1   
    35    18    36 1   
    36    18    46 1   
    37    19    20 ar  
    38    19    24 ar  
    39    19    46 1   
    40    20    21 ar  
    41    20    37 1   
    42    21    22 ar  
    43    21    38 1   
    44    22    23 ar  
    45    22    39 1   
    46    23    24 ar  
    47    23    40 1   
    48    24    41 1   
    49    42    45 1   
    50    43    45 1   
    51    44    45 1   
@<TRIPOS>SUBSTRUCTURE
     1 MSI         1 TEMP              0 ****  ****    0 ROOT
