@<TRIPOS>MOLECULE
MSJ
   49    50     1     0     0
SMALL
bcc


@<TRIPOS>ATOM
      1 O1           5.7410    -3.4020     0.9810 o          1 MSJ      -0.596500
      2 C2           5.4340    -2.2300     0.8690 c          1 MSJ       0.731700
      3 N3           5.4740    -1.6060    -0.3700 ns         1 MSJ      -0.605500
      4 C4           5.1600    -0.3080    -0.6710 c          1 MSJ       0.826500
      5 N5           4.7590     0.4550     0.4090 n          1 MSJ      -0.419000
      6 C6           4.6950    -0.0820     1.6630 cc         1 MSJ       0.046600
      7 C7           5.0090    -1.3590     1.9380 cd         1 MSJ      -0.325200
      8 O8           5.2340     0.1370    -1.7960 o          1 MSJ      -0.613500
      9 C9           4.3560     1.8360     0.1610 c3         1 MSJ       0.311800
     10 C10         -1.8270     1.5490    -0.3750 c3         1 MSJ       0.284200
     11 O10          3.1290     1.9300    -0.4710 os         1 MSJ      -0.390600
     12 C11          2.0140     1.6130     0.3430 c3         1 MSJ       0.126400
     13 C12          0.7530     1.7830    -0.4810 c3         1 MSJ      -0.077400
     14 S12         -4.3330     0.6460     0.4630 sy         1 MSJ       1.328200
     15 C13         -0.4750     1.4390     0.3520 c3         1 MSJ      -0.087400
     16 O13         -4.9730     1.4210    -0.5890 o          1 MSJ      -0.611800
     17 C14         -4.2520    -1.0390    -0.0970 ca         1 MSJ      -0.290500
     18 C15         -3.5830    -1.9680     0.6920 ca         1 MSJ      -0.037000
     19 C16         -3.5200    -3.2870     0.2730 ca         1 MSJ      -0.146000
     20 C17         -4.1270    -3.6710    -0.9170 ca         1 MSJ      -0.077000
     21 N17         -2.8110     1.1790     0.6690 n7         1 MSJ      -0.887100
     22 C18         -4.7990    -2.7360    -1.6900 ca         1 MSJ      -0.146000
     23 O19         -4.9170     0.6190     1.7960 o          1 MSJ      -0.611800
     24 C20         -4.8660    -1.4100    -1.2830 ca         1 MSJ      -0.037000
     25 C25         -2.0910     2.9850    -0.8230 c3         1 MSJ      -0.113600
     26 C26         -1.8690     0.5950    -1.5660 c3         1 MSJ      -0.113600
     27 HN3          5.7660    -2.1740    -1.1560 hn         1 MSJ       0.343500
     28 H6           4.3750     0.5960     2.4420 h4         1 MSJ       0.151000
     29 H7           4.9470    -1.7360     2.9460 ha         1 MSJ       0.173000
     30 H9           4.3670     2.3460     1.1290 h2         1 MSJ       0.073200
     31 H9A          5.0940     2.3050    -0.4850 h2         1 MSJ       0.073200
     32 H11          2.0740     0.5800     0.7080 h1         1 MSJ       0.025700
     33 H11A         1.9900     2.2700     1.2230 h1         1 MSJ       0.025700
     34 H12          0.6960     2.8100    -0.8480 hc         1 MSJ       0.062700
     35 H12A         0.8160     1.1290    -1.3540 hc         1 MSJ       0.062700
     36 H13         -0.5040     2.0950     1.2290 hc         1 MSJ       0.043200
     37 H13A        -0.3720     0.4140     0.7270 hc         1 MSJ       0.043200
     38 H15         -3.1040    -1.6740     1.6170 ha         1 MSJ       0.146000
     39 H16         -2.9950    -4.0150     0.8760 ha         1 MSJ       0.137000
     40 H17         -4.0750    -4.7020    -1.2410 ha         1 MSJ       0.135000
     41 HN17        -2.4380     0.9580     1.5830 hn         1 MSJ       0.439800
     42 H18         -5.2730    -3.0340    -2.6160 ha         1 MSJ       0.137000
     43 H20         -5.3860    -0.6820    -1.8910 ha         1 MSJ       0.146000
     44 H25         -1.3880     3.2920    -1.5970 hc         1 MSJ       0.052033
     45 H25A        -3.0940     3.0870    -1.2350 hc         1 MSJ       0.052033
     46 H25B        -1.9960     3.6750     0.0170 hc         1 MSJ       0.052033
     47 H26         -1.6670    -0.4330    -1.2600 hc         1 MSJ       0.052033
     48 H26A        -2.8280     0.6210    -2.0820 hc         1 MSJ       0.052033
     49 H26B        -1.1170     0.8790    -2.3010 hc         1 MSJ       0.052033
@<TRIPOS>BOND
     1     1     2 2   
     2     2     3 1   
     3     2     7 1   
     4     3     4 1   
     5     3    27 1   
     6     4     5 1   
     7     4     8 2   
     8     5     6 1   
     9     5     9 1   
    10     6     7 2   
    11     6    28 1   
    12     7    29 1   
    13     9    11 1   
    14     9    30 1   
    15     9    31 1   
    16    10    15 1   
    17    10    21 1   
    18    10    25 1   
    19    10    26 1   
    20    11    12 1   
    21    12    13 1   
    22    12    32 1   
    23    12    33 1   
    24    13    15 1   
    25    13    34 1   
    26    13    35 1   
    27    14    16 2   
    28    14    17 1   
    29    14    21 1   
    30    14    23 2   
    31    15    36 1   
    32    15    37 1   
    33    17    18 ar  
    34    17    24 ar  
    35    18    19 ar  
    36    18    38 1   
    37    19    20 ar  
    38    19    39 1   
    39    20    22 ar  
    40    20    40 1   
    41    21    41 1   
    42    22    24 ar  
    43    22    42 1   
    44    24    43 1   
    45    25    44 1   
    46    25    45 1   
    47    25    46 1   
    48    26    47 1   
    49    26    48 1   
    50    26    49 1   
@<TRIPOS>SUBSTRUCTURE
     1 MSJ         1 TEMP              0 ****  ****    0 ROOT
