@<TRIPOS>MOLECULE
MSJ
   49    50     1     0     0
SMALL
No Charge or Current Charge


@<TRIPOS>ATOM
      1 O1           6.6410    -2.8580    -0.3570 o          1 MSJ      -0.521000
      2 C2           6.1530    -1.7890    -0.0360 c          1 MSJ       0.589200
      3 N3           6.2600    -0.6770    -0.8080 ns         1 MSJ      -0.471500
      4 C4           5.7640     0.5670    -0.5670 c          1 MSJ       0.617000
      5 N5           5.0390     0.7220     0.6300 n          1 MSJ      -0.352000
      6 C6           4.8700    -0.3400     1.5200 cc         1 MSJ      -0.003400
      7 C7           5.4050    -1.5660     1.2040 cd         1 MSJ      -0.375200
      8 O8           5.9610     1.4750    -1.3580 o          1 MSJ      -0.538000
      9 C9           4.4790     2.0560     0.9320 c3         1 MSJ       0.335000
     10 C10         -1.6320     1.3360    -0.7510 c3         1 MSJ       0.284200
     11 O10          3.2600     2.2580     0.1900 os         1 MSJ      -0.437000
     12 C11          2.1480     1.4400     0.5890 c3         1 MSJ       0.149600
     13 C12          0.9400     1.8440    -0.2760 c3         1 MSJ      -0.077400
     14 S12         -4.2870     0.5360    -0.4280 sy         1 MSJ       1.186600
     15 C13         -0.3340     1.0210     0.0600 c3         1 MSJ      -0.087400
     16 O13         -4.5160     0.8280    -1.8440 o          1 MSJ      -0.541000
     17 C14         -4.7390    -1.1710    -0.0920 ca         1 MSJ      -0.290500
     18 C15         -4.8740    -1.6130     1.2410 ca         1 MSJ      -0.019000
     19 C16         -5.2200    -2.9490     1.5070 ca         1 MSJ      -0.128000
     20 C17         -5.4300    -3.8490     0.4480 ca         1 MSJ      -0.059000
     21 N17         -2.6340     0.4090    -0.1880 n7         1 MSJ      -0.942300
     22 C18         -5.2920    -3.4120    -0.8800 ca         1 MSJ      -0.128000
     23 O19         -4.7880     1.3850     0.6560 o          1 MSJ      -0.541000
     24 C20         -4.9460    -2.0770    -1.1540 ca         1 MSJ      -0.019000
     25 C25         -2.0690     2.8100    -0.5330 c3         1 MSJ      -0.113600
     26 C26         -1.4140     1.0340    -2.2580 c3         1 MSJ      -0.113600
     27 HN3          6.7740    -0.7850    -1.6670 hn         1 MSJ       0.343500
     28 H6           4.3030    -0.0930     2.4150 h4         1 MSJ       0.201000
     29 H7           5.3040    -2.4320     1.8480 ha         1 MSJ       0.223000
     30 H9           4.3070     2.1280     2.0120 h2         1 MSJ       0.073200
     31 H9A          5.2310     2.8050     0.6590 h2         1 MSJ       0.073200
     32 H11          2.3660     0.3760     0.4320 h1         1 MSJ       0.025700
     33 H11A         1.9110     1.5970     1.6500 h1         1 MSJ       0.025700
     34 H12          0.7500     2.9120    -0.1230 hc         1 MSJ       0.062700
     35 H12A         1.2120     1.7060    -1.3290 hc         1 MSJ       0.062700
     36 H13         -0.5500     1.1570     1.1280 hc         1 MSJ       0.043200
     37 H13A        -0.0910    -0.0420    -0.0640 hc         1 MSJ       0.043200
     38 H15         -4.7090    -0.9270     2.0700 ha         1 MSJ       0.128000
     39 H16         -5.3240    -3.2870     2.5350 ha         1 MSJ       0.119000
     40 H17         -5.6970    -4.8830     0.6570 ha         1 MSJ       0.117000
     41 HN17        -2.4460    -0.5450    -0.4810 hn         1 MSJ       0.495000
     42 H18         -5.4530    -4.1090    -1.7000 ha         1 MSJ       0.119000
     43 H20         -4.8430    -1.7560    -2.1900 ha         1 MSJ       0.128000
     44 H25         -1.3040     3.5050    -0.8980 hc         1 MSJ       0.052033
     45 H25A        -2.9880     3.0460    -1.0800 hc         1 MSJ       0.052033
     46 H25B        -2.2360     3.0150     0.5310 hc         1 MSJ       0.052033
     47 H26         -1.1440    -0.0170    -2.4150 hc         1 MSJ       0.052033
     48 H26A        -2.3030     1.2530    -2.8570 hc         1 MSJ       0.052033
     49 H26B        -0.6100     1.6540    -2.6690 hc         1 MSJ       0.052033
@<TRIPOS>BOND
     1     1     2 2   
     2     2     3 1   
     3     2     7 1   
     4     3     4 1   
     5     3    27 1   
     6     4     5 1   
     7     4     8 2   
     8     5     6 1   
     9     5     9 1   
    10     6     7 2   
    11     6    28 1   
    12     7    29 1   
    13     9    11 1   
    14     9    30 1   
    15     9    31 1   
    16    10    15 1   
    17    10    21 1   
    18    10    25 1   
    19    10    26 1   
    20    11    12 1   
    21    12    13 1   
    22    12    32 1   
    23    12    33 1   
    24    13    15 1   
    25    13    34 1   
    26    13    35 1   
    27    14    16 2   
    28    14    17 1   
    29    14    21 1   
    30    14    23 2   
    31    15    36 1   
    32    15    37 1   
    33    17    18 ar  
    34    17    24 ar  
    35    18    19 ar  
    36    18    38 1   
    37    19    20 ar  
    38    19    39 1   
    39    20    22 ar  
    40    20    40 1   
    41    21    41 1   
    42    22    24 ar  
    43    22    42 1   
    44    24    43 1   
    45    25    44 1   
    46    25    45 1   
    47    25    46 1   
    48    26    47 1   
    49    26    48 1   
    50    26    49 1   
@<TRIPOS>SUBSTRUCTURE
     1 MSJ         1 TEMP              0 ****  ****    0 ROOT
