@<TRIPOS>MOLECULE
MSL
   22    21     1     0     0
SMALL
No Charge or Current Charge


@<TRIPOS>ATOM
      1 OXT         37.8290    17.8530    61.8170 o          1 MSL      -0.827800
      2 C           36.6220    18.0320    61.9550 c          1 MSL       0.927600
      3 O           36.0520    17.8410    63.0260 o          1 MSL      -0.827800
      4 CA          35.7840    18.5330    60.6890 c3         1 MSL       0.022500
      5 N           35.3280    17.4740    59.7100 n8         1 MSL      -0.907800
      6 CB          34.5880    19.4330    61.1090 c3         1 MSL      -0.026400
      7 CG          33.9300    20.1960    59.9310 c3         1 MSL      -0.137600
      8 SD          32.6080    21.3110    60.4740 s6         1 MSL       0.663700
      9 OE          33.2020    22.3860    61.2730 o          1 MSL      -0.548800
     10 NE          31.4260    20.5140    61.0780 n2         1 MSL      -0.719900
     11 CE          32.1150    22.0170    58.8940 c3         1 MSL      -0.231300
     12 HA          36.4710    19.1760    60.1230 h1         1 MSL       0.003700
     13 H           36.1490    16.9690    59.3550 hn         1 MSL       0.332300
     14 H2          34.9280    17.9250    58.8820 hn         1 MSL       0.332300
     15 HB2         34.9480    20.1680    61.8420 hc         1 MSL       0.067700
     16 HB3         33.8340    18.8230    61.6220 hc         1 MSL       0.067700
     17 HG2         33.4840    19.4960    59.2150 h1         1 MSL       0.076200
     18 HG3         34.6740    20.8140    59.4150 h1         1 MSL       0.076200
     19 HE          31.1610    19.7760    60.4140 hn         1 MSL       0.406400
     20 HE1         31.7650    21.2070    58.2440 h1         1 MSL       0.083700
     21 HE2         32.9860    22.5160    58.4550 h1         1 MSL       0.083700
     22 HE3         31.3120    22.7390    59.0810 h1         1 MSL       0.083700
@<TRIPOS>BOND
     1     1     2 1   
     2     2     3 1   
     3     2     4 1   
     4     4     5 1   
     5     4     6 1   
     6     4    12 1   
     7     5    13 1   
     8     5    14 1   
     9     6     7 1   
    10     6    15 1   
    11     6    16 1   
    12     7     8 1   
    13     7    17 1   
    14     7    18 1   
    15     8     9 2   
    16     8    10 2   
    17     8    11 1   
    18    10    19 1   
    19    11    20 1   
    20    11    21 1   
    21    11    22 1   
@<TRIPOS>SUBSTRUCTURE
     1 MSL         1 TEMP              0 ****  ****    0 ROOT
