@<TRIPOS>MOLECULE
MSL
   22    21     1     0     0
SMALL
bcc


@<TRIPOS>ATOM
      1 OXT         36.8370    16.7890    61.6980 o          1 MSL      -0.827800
      2 C           36.5120    17.9840    61.8430 c          1 MSL       0.927600
      3 O           36.7080    18.6950    62.8470 o          1 MSL      -0.827800
      4 CA          35.8240    18.6750    60.6320 c3         1 MSL       0.022500
      5 N           35.3840    17.6990    59.6470 n8         1 MSL      -0.907800
      6 CB          34.6480    19.5400    61.0950 c3         1 MSL      -0.026400
      7 CG          33.9930    20.2470    59.9210 c3         1 MSL      -0.137600
      8 SD          32.5440    21.1670    60.4610 s6         1 MSL       0.663700
      9 OE          32.9740    22.1830    61.4310 o          1 MSL      -0.548800
     10 NE          31.4350    20.2610    61.0180 n2         1 MSL      -0.719900
     11 CE          32.0490    21.9970    58.9530 c3         1 MSL      -0.231300
     12 HA          36.5810    19.3580    60.2120 h1         1 MSL       0.003700
     13 H           35.9470    16.8680    59.7770 hn         1 MSL       0.332300
     14 H2          35.5600    18.0330    58.7090 hn         1 MSL       0.332300
     15 HB2         34.9990    20.2740    61.8190 hc         1 MSL       0.067700
     16 HB3         33.9090    18.9060    61.5930 hc         1 MSL       0.067700
     17 HG2         33.6440    19.5380    59.1670 h1         1 MSL       0.076200
     18 HG3         34.6700    20.9590    59.4420 h1         1 MSL       0.076200
     19 HE          31.1590    19.5470    60.3510 hn         1 MSL       0.406400
     20 HE1         31.7760    21.2510    58.2090 h1         1 MSL       0.083700
     21 HE2         32.8620    22.6190    58.5830 h1         1 MSL       0.083700
     22 HE3         31.1830    22.6100    59.1960 h1         1 MSL       0.083700
@<TRIPOS>BOND
     1     1     2 1   
     2     2     3 1   
     3     2     4 1   
     4     4     5 1   
     5     4     6 1   
     6     4    12 1   
     7     5    13 1   
     8     5    14 1   
     9     6     7 1   
    10     6    15 1   
    11     6    16 1   
    12     7     8 1   
    13     7    17 1   
    14     7    18 1   
    15     8     9 2   
    16     8    10 2   
    17     8    11 1   
    18    10    19 1   
    19    11    20 1   
    20    11    21 1   
    21    11    22 1   
@<TRIPOS>SUBSTRUCTURE
     1 MSL         1 TEMP              0 ****  ****    0 ROOT
