@<TRIPOS>MOLECULE
MSM
    9     8     1     0     0
SMALL
No Charge or Current Charge


@<TRIPOS>ATOM
      1 CB1          1.4070    -0.5500     0.0210 c3         1 MSM       0.039400
      2 SG1         -0.0070     0.6410    -0.0630 ss         1 MSM      -0.432000
      3 CD1         -1.4260    -0.5470    -0.0200 c3         1 MSM       0.039400
      4 HB11         1.3470    -1.1360     0.9470 h1         1 MSM       0.059033
      5 HB12         1.3730    -1.2310    -0.8390 h1         1 MSM       0.059033
      6 HB13         2.3560     0.0000     0.0060 h1         1 MSM       0.059033
      7 HD11        -1.3690    -1.2280    -0.8780 h1         1 MSM       0.059033
      8 HD12        -1.3940    -1.1330     0.9080 h1         1 MSM       0.059033
      9 HD13        -2.3730     0.0050    -0.0630 h1         1 MSM       0.059033
@<TRIPOS>BOND
     1     1     2 1   
     2     1     4 1   
     3     1     5 1   
     4     1     6 1   
     5     2     3 1   
     6     3     7 1   
     7     3     8 1   
     8     3     9 1   
@<TRIPOS>SUBSTRUCTURE
     1 MSM         1 TEMP              0 ****  ****    0 ROOT
