@<TRIPOS>MOLECULE
MSM
    9     8     1     0     0
SMALL
bcc


@<TRIPOS>ATOM
      1 CB1          1.3690    -0.5550     0.0200 c3         1 MSM      -0.008500
      2 SG1         -0.0080     0.6120    -0.0590 ss         1 MSM      -0.336200
      3 CD1         -1.3880    -0.5520    -0.0180 c3         1 MSM      -0.008500
      4 HB11         1.3370    -1.1370     0.9400 h1         1 MSM       0.059033
      5 HB12         1.3620    -1.2290    -0.8350 h1         1 MSM       0.059033
      6 HB13         2.2940     0.0190     0.0040 h1         1 MSM       0.059033
      7 HD11        -1.3550    -1.2290    -0.8710 h1         1 MSM       0.059033
      8 HD12        -1.3860    -1.1310     0.9040 h1         1 MSM       0.059033
      9 HD13        -2.3110     0.0240    -0.0660 h1         1 MSM       0.059033
@<TRIPOS>BOND
     1     1     2 1   
     2     1     4 1   
     3     1     5 1   
     4     1     6 1   
     5     2     3 1   
     6     3     7 1   
     7     3     8 1   
     8     3     9 1   
@<TRIPOS>SUBSTRUCTURE
     1 MSM         1 TEMP              0 ****  ****    0 ROOT
