@<TRIPOS>MOLECULE
MSN
   24    24     1     0     0
SMALL
No Charge or Current Charge


@<TRIPOS>ATOM
      1 C5          -0.2010    -1.3970    -0.3920 c5         1 MSN       0.182500
      2 N5           0.0600    -2.7290     0.2060 n8         1 MSN      -0.972200
      3 C4          -1.6620    -0.8450    -0.2330 c5         1 MSN       0.147300
      4 O4          -2.1230    -0.7660     1.1270 oh         1 MSN      -0.684000
      5 C3          -1.4690     0.5800    -0.8480 c5         1 MSN       0.081300
      6 O3          -2.5090     1.4980    -0.4450 oh         1 MSN      -0.657000
      7 C2          -0.0430     1.0450    -0.3680 c5         1 MSN       0.187300
      8 O2          -0.1850     2.1090     0.5730 oh         1 MSN      -0.705000
      9 C1           0.5990    -0.2360     0.2700 c5         1 MSN       0.063300
     10 S6           2.4010    -0.3640    -0.2380 ss         1 MSN      -0.447000
     11 C7           3.1520     1.0120     0.7490 c3         1 MSN       0.051900
     12 H5           0.0580    -1.4770    -1.4580 h1         1 MSN       0.022700
     13 HN51        -0.4090    -3.4480    -0.3550 hn         1 MSN       0.402000
     14 HN52         1.0570    -2.9430     0.0930 hn         1 MSN       0.402000
     15 H4          -2.3700    -1.4330    -0.8340 h1         1 MSN       0.038700
     16 HO4         -2.6290     0.0800     1.1670 ho         1 MSN       0.511000
     17 H3          -1.4580     0.4980    -1.9450 h1         1 MSN       0.043700
     18 HO3         -3.2350     1.4330    -1.1100 ho         1 MSN       0.453000
     19 H2           0.5390     1.3830    -1.2370 h1         1 MSN       0.048700
     20 HO2         -1.1500     2.3260     0.4900 ho         1 MSN       0.518000
     21 H1           0.4900    -0.2460     1.3630 h1         1 MSN       0.121700
     22 H71          4.2360     1.0410     0.5780 h1         1 MSN       0.063367
     23 H72          2.7170     1.9720     0.4460 h1         1 MSN       0.063367
     24 H73          2.9620     0.8520     1.8180 h1         1 MSN       0.063367
@<TRIPOS>BOND
     1     1     2 1   
     2     1     3 1   
     3     1     9 1   
     4     1    12 1   
     5     2    13 1   
     6     2    14 1   
     7     3     4 1   
     8     3     5 1   
     9     3    15 1   
    10     4    16 1   
    11     5     6 1   
    12     5     7 1   
    13     5    17 1   
    14     6    18 1   
    15     7     8 1   
    16     7     9 1   
    17     7    19 1   
    18     8    20 1   
    19     9    10 1   
    20     9    21 1   
    21    10    11 1   
    22    11    22 1   
    23    11    23 1   
    24    11    24 1   
@<TRIPOS>SUBSTRUCTURE
     1 MSN         1 TEMP              0 ****  ****    0 ROOT
