@<TRIPOS>MOLECULE
MSN
   24    24     1     0     0
SMALL
bcc


@<TRIPOS>ATOM
      1 C5          -0.1950    -1.3720    -0.3940 c5         1 MSN       0.182500
      2 N5           0.0250    -2.5970     0.3440 n8         1 MSN      -0.861800
      3 C4          -1.6270    -0.8520    -0.3300 c5         1 MSN       0.124100
      4 O4          -2.0740    -0.8350     1.0010 oh         1 MSN      -0.561800
      5 C3          -1.4420     0.5650    -0.8780 c5         1 MSN       0.058100
      6 O3          -2.5080     1.4340    -0.5990 oh         1 MSN      -0.594800
      7 C2          -0.1380     1.0810    -0.2240 c5         1 MSN       0.164100
      8 O2          -0.3540     1.8520     0.9310 oh         1 MSN      -0.582800
      9 C1           0.6160    -0.2000     0.1740 c5         1 MSN       0.015400
     10 S6           2.3310    -0.3000    -0.3960 ss         1 MSN      -0.351200
     11 C7           3.0980     0.9690     0.6350 c3         1 MSN       0.004000
     12 H5           0.0420    -1.4700    -1.4670 h1         1 MSN       0.022700
     13 HN51        -0.4750    -3.3550    -0.1030 hn         1 MSN       0.346800
     14 HN52         1.0050    -2.8470     0.2830 hn         1 MSN       0.346800
     15 H4          -2.2980    -1.4490    -0.9660 h1         1 MSN       0.038700
     16 HO4         -2.7010    -0.1070     1.0840 ho         1 MSN       0.412000
     17 H3          -1.2640     0.4830    -1.9580 h1         1 MSN       0.043700
     18 HO3         -3.2180     1.2650    -1.2270 ho         1 MSN       0.414000
     19 H2           0.4350     1.6530    -0.9640 h1         1 MSN       0.048700
     20 HO2         -0.8600     2.6320     0.6800 ho         1 MSN       0.419000
     21 H1           0.6110    -0.2800     1.2650 h1         1 MSN       0.121700
     22 H71          4.1680     0.9470     0.4390 h1         1 MSN       0.063367
     23 H72          2.7210     1.9610     0.3920 h1         1 MSN       0.063367
     24 H73          2.9310     0.7680     1.6920 h1         1 MSN       0.063367
@<TRIPOS>BOND
     1     1     2 1   
     2     1     3 1   
     3     1     9 1   
     4     1    12 1   
     5     2    13 1   
     6     2    14 1   
     7     3     4 1   
     8     3     5 1   
     9     3    15 1   
    10     4    16 1   
    11     5     6 1   
    12     5     7 1   
    13     5    17 1   
    14     6    18 1   
    15     7     8 1   
    16     7     9 1   
    17     7    19 1   
    18     8    20 1   
    19     9    10 1   
    20     9    21 1   
    21    10    11 1   
    22    11    22 1   
    23    11    23 1   
    24    11    24 1   
@<TRIPOS>SUBSTRUCTURE
     1 MSN         1 TEMP              0 ****  ****    0 ROOT
