@<TRIPOS>MOLECULE
MSO
   20    19     1     0     0
SMALL
No Charge or Current Charge


@<TRIPOS>ATOM
      1 N            1.9510    -0.2430    -2.2900 n8         1 MSO      -0.879800
      2 CA           0.4630    -0.4940    -2.1880 c3         1 MSO       0.021500
      3 CB          -0.0870     0.0760    -0.8530 c3         1 MSO      -0.101400
      4 C           -0.4360    -0.0230    -3.4160 c          1 MSO       0.942600
      5 CG           0.4710    -0.6140     0.4110 c3         1 MSO       0.155900
      6 SE          -0.3420     0.0540     1.9460 s4         1 MSO      -0.227400
      7 OE           0.0850     1.4930     2.1050 o          1 MSO      -0.423200
      8 CE           0.6380    -0.9530     3.1580 c3         1 MSO       0.076200
      9 O           -0.4470     1.1670    -3.7220 o          1 MSO      -0.830300
     10 OXT         -1.0420    -0.8730    -4.0630 o          1 MSO      -0.830300
     11 H            2.1150     0.7650    -2.3890 hn         1 MSO       0.322300
     12 H2           2.4120    -0.5000    -1.4130 hn         1 MSO       0.322300
     13 HCA          0.3400    -1.5850    -2.1390 h1         1 MSO       0.039700
     14 HB2         -1.1780    -0.0420    -0.8480 hc         1 MSO       0.061200
     15 HB3          0.1100     1.1540    -0.8010 hc         1 MSO       0.061200
     16 HG2          1.5530    -0.4510     0.4960 h1         1 MSO       0.056700
     17 HG3          0.2760    -1.6930     0.3670 h1         1 MSO       0.056700
     18 HE1          0.4020    -0.6150     4.1750 h1         1 MSO       0.058700
     19 HE2          0.3700    -2.0110     3.0480 h1         1 MSO       0.058700
     20 HE3          1.7100    -0.8170     2.9630 h1         1 MSO       0.058700
@<TRIPOS>BOND
     1     1     2 1   
     2     1    11 1   
     3     1    12 1   
     4     2     3 1   
     5     2     4 1   
     6     2    13 1   
     7     3     5 1   
     8     3    14 1   
     9     3    15 1   
    10     4     9 1   
    11     4    10 1   
    12     5     6 1   
    13     5    16 1   
    14     5    17 1   
    15     6     7 2   
    16     6     8 1   
    17     8    18 1   
    18     8    19 1   
    19     8    20 1   
@<TRIPOS>SUBSTRUCTURE
     1 MSO         1 TEMP              0 ****  ****    0 ROOT
