@<TRIPOS>MOLECULE
MSO
   20    19     1     0     0
SMALL
bcc


@<TRIPOS>ATOM
      1 N            1.9200    -0.2050    -2.3030 n8         1 MSO      -0.879800
      2 CA           0.5030    -0.5240    -2.1890 c3         1 MSO       0.021500
      3 CB          -0.1810    -0.0470    -0.8880 c3         1 MSO      -0.101400
      4 C           -0.2980     0.0790    -3.3680 c          1 MSO       0.942600
      5 CG           0.3860    -0.7100     0.3570 c3         1 MSO       0.155900
      6 SE          -0.4880    -0.0150     1.9690 s4         1 MSO      -0.227400
      7 OE          -0.0260     1.5640     2.0190 o          1 MSO      -0.423200
      8 CE           0.7170    -0.9120     3.2130 c3         1 MSO       0.076200
      9 O            0.1550     1.1160    -3.8980 o          1 MSO      -0.830300
     10 OXT         -1.3420    -0.5030    -3.6500 o          1 MSO      -0.830300
     11 H            2.0250     0.7960    -2.4030 hn         1 MSO       0.322300
     12 H2           2.4300    -0.4750    -1.4660 hn         1 MSO       0.322300
     13 HCA          0.3960    -1.6130    -2.2370 h1         1 MSO       0.039700
     14 HB2         -1.2510    -0.2640    -0.9560 hc         1 MSO       0.061200
     15 HB3         -0.0760     1.0400    -0.8140 hc         1 MSO       0.061200
     16 HG2          1.4540    -0.5170     0.4810 h1         1 MSO       0.056700
     17 HG3          0.2340    -1.7900     0.3360 h1         1 MSO       0.056700
     18 HE1          0.4600    -0.6020     4.2250 h1         1 MSO       0.058700
     19 HE2          0.5980    -1.9920     3.1290 h1         1 MSO       0.058700
     20 HE3          1.7460    -0.6310     2.9910 h1         1 MSO       0.058700
@<TRIPOS>BOND
     1     1     2 1   
     2     1    11 1   
     3     1    12 1   
     4     2     3 1   
     5     2     4 1   
     6     2    13 1   
     7     3     5 1   
     8     3    14 1   
     9     3    15 1   
    10     4     9 1   
    11     4    10 1   
    12     5     6 1   
    13     5    16 1   
    14     5    17 1   
    15     6     7 2   
    16     6     8 1   
    17     8    18 1   
    18     8    19 1   
    19     8    20 1   
@<TRIPOS>SUBSTRUCTURE
     1 MSO         1 TEMP              0 ****  ****    0 ROOT
