@<TRIPOS>MOLECULE
MSP
   56    58     1     0     0
SMALL
bcc


@<TRIPOS>ATOM
      1 N2           1.7400     1.6070    -0.9820 n8         1 MSP      -0.897800
      2 CA           2.7790     0.6970    -0.5540 c3         1 MSP       0.089500
      3 CB           4.0010     1.3240     0.1420 c3         1 MSP      -0.105400
      4 CG           4.7340     2.2890    -0.7760 c3         1 MSP       0.007700
      5 SD           6.2400     2.8790     0.0450 ss         1 MSP      -0.324200
      6 CE           6.8100     4.0790    -1.1770 c3         1 MSP      -0.010000
      7 C9           2.1630    -0.2970     0.4140 c          1 MSP       0.694100
      8 N8           2.5560    -1.6030     0.2110 ns         1 MSP      -0.692300
      9 S1           2.1030    -2.8720     1.1900 s6         1 MSP       1.581100
     10 O1S          2.6620    -4.0400     0.5580 o          1 MSP      -0.606300
     11 O2S          2.3710    -2.5680     2.5670 o          1 MSP      -0.606300
     12 O5           0.5260    -2.8720     1.0820 os         1 MSP      -0.517500
     13 C5          -0.0960    -3.1100    -0.1960 c3         1 MSP       0.165400
     14 C4          -1.5880    -2.9890     0.0180 c5         1 MSP       0.147100
     15 O4          -1.9040    -1.7100     0.5500 os         1 MSP      -0.378600
     16 C3          -2.3480    -3.1260    -1.3040 c5         1 MSP       0.084100
     17 O3          -3.5550    -3.7960    -1.0580 oh         1 MSP      -0.579800
     18 C2          -2.5900    -1.6580    -1.6630 c5         1 MSP       0.041100
     19 O2          -3.6950    -1.4330    -2.4880 oh         1 MSP      -0.576800
     20 C1          -2.8330    -1.0470    -0.2850 c5         1 MSP       0.457300
     21 N9          -2.6680     0.3590    -0.1730 nh         1 MSP      -0.776600
     22 C8          -1.5700     1.0840    -0.5520 c2         1 MSP       0.616100
     23 N7          -1.7100     2.3610    -0.5360 ne         1 MSP      -0.613300
     24 C7          -3.0230     2.5720    -0.1090 ce         1 MSP      -0.098600
     25 C6          -3.5740     3.6720     0.4230 c2         1 MSP       0.301000
     26 N6          -3.0940     4.9680     0.3870 nv         1 MSP      -0.800600
     27 N1          -4.7710     3.4720     1.1110 nu         1 MSP      -0.755000
     28 C11         -5.0070     2.2340     1.6520 c2         1 MSP       0.618100
     29 N3          -4.5110     1.1420     1.2220 n2         1 MSP      -0.627900
     30 C10         -3.7850     1.2780    -0.0210 c5         1 MSP       0.450900
     31 O1           1.4130     0.0180     1.3040 o          1 MSP      -0.506100
     32 HN21         1.4100     2.1710    -0.2090 hn         1 MSP       0.365800
     33 HN22         2.1010     2.2430    -1.6790 hn         1 MSP       0.365800
     34 HA           3.1340     0.1630    -1.4400 h1         1 MSP       0.062700
     35 HB1          4.6830     0.5250     0.4510 hc         1 MSP       0.072700
     36 HB2          3.6800     1.8430     1.0490 hc         1 MSP       0.072700
     37 HG1          4.1070     3.1500    -1.0140 h1         1 MSP       0.055200
     38 HG2          5.0040     1.7970    -1.7140 h1         1 MSP       0.055200
     39 HE1          6.9870     3.6040    -2.1410 h1         1 MSP       0.061367
     40 HE2          6.0930     4.8900    -1.3000 h1         1 MSP       0.061367
     41 HE3          7.7490     4.4950    -0.8170 h1         1 MSP       0.061367
     42 HN8          3.1340    -1.8470    -0.5850 hn         1 MSP       0.344500
     43 H5'1         0.2670    -2.3830    -0.9270 h1         1 MSP       0.050700
     44 H5'2         0.1430    -4.1150    -0.5480 h1         1 MSP       0.050700
     45 H4          -1.9080    -3.7690     0.7170 h1         1 MSP       0.103700
     46 H3          -1.7510    -3.6440    -2.0680 h1         1 MSP       0.047700
     47 H2          -4.1720    -3.5670    -1.7640 ho         1 MSP       0.424000
     48 H1          -1.6710    -1.2390    -2.0960 h1         1 MSP       0.048700
     49 H9          -3.4260    -1.5350    -3.4070 ho         1 MSP       0.413000
     50 H10         -3.8620    -1.2620     0.0290 h2         1 MSP       0.099700
     51 H8          -0.6310     0.6060    -0.7980 h5         1 MSP       0.062800
     52 HN61        -2.2040     5.0300    -0.0860 hn         1 MSP       0.392300
     53 HN62        -3.0280     5.4070     1.2960 hn         1 MSP       0.392300
     54 HN1         -5.2300     4.2670     1.5250 hn         1 MSP       0.439800
     55 H7          -5.6560     2.2330     2.5210 h5         1 MSP       0.040800
     56 H6          -4.5040     1.1310    -0.8460 h2         1 MSP       0.072700
@<TRIPOS>BOND
     1     1     2 1   
     2     1    32 1   
     3     1    33 1   
     4     2     3 1   
     5     2     7 1   
     6     2    34 1   
     7     3     4 1   
     8     3    35 1   
     9     3    36 1   
    10     4     5 1   
    11     4    37 1   
    12     4    38 1   
    13     5     6 1   
    14     6    39 1   
    15     6    40 1   
    16     6    41 1   
    17     7     8 1   
    18     7    31 2   
    19     8     9 1   
    20     8    42 1   
    21     9    10 2   
    22     9    11 2   
    23     9    12 1   
    24    12    13 1   
    25    13    14 1   
    26    13    43 1   
    27    13    44 1   
    28    14    15 1   
    29    14    16 1   
    30    14    45 1   
    31    15    20 1   
    32    16    17 1   
    33    16    18 1   
    34    16    46 1   
    35    17    47 1   
    36    18    19 1   
    37    18    20 1   
    38    18    48 1   
    39    19    49 1   
    40    20    21 1   
    41    20    50 1   
    42    21    22 1   
    43    21    30 1   
    44    22    23 2   
    45    22    51 1   
    46    23    24 1   
    47    24    25 2   
    48    24    30 1   
    49    25    26 1   
    50    25    27 1   
    51    26    52 1   
    52    26    53 1   
    53    27    28 1   
    54    27    54 1   
    55    28    29 2   
    56    28    55 1   
    57    29    30 1   
    58    30    56 1   
@<TRIPOS>SUBSTRUCTURE
     1 MSP         1 TEMP              0 ****  ****    0 ROOT
