@<TRIPOS>MOLECULE
MSP
   56    58     1     0     0
SMALL
No Charge or Current Charge


@<TRIPOS>ATOM
      1 N2           1.7460     0.7970    -1.4790 n8         1 MSP      -1.008200
      2 CA           2.7910     0.4280    -0.4660 c3         1 MSP       0.089500
      3 CB           3.3400     1.6920     0.2460 c3         1 MSP      -0.105400
      4 CG           4.0700     2.6820    -0.6860 c3         1 MSP       0.055600
      5 SD           4.7680     4.0860     0.2940 ss         1 MSP      -0.420000
      6 CE           5.5660     5.0550    -1.0650 c3         1 MSP       0.037900
      7 C9           2.3590    -0.6870     0.5580 c          1 MSP       0.627100
      8 N8           2.4800    -1.9530     0.0820 ns         1 MSP      -0.625300
      9 S1           2.1120    -3.3730     0.8570 s6         1 MSP       1.439500
     10 O1S          2.4420    -4.4670    -0.0610 o          1 MSP      -0.535500
     11 O2S          2.6600    -3.3320     2.2160 o          1 MSP      -0.535500
     12 O5           0.4790    -3.2110     0.9390 os         1 MSP      -0.540700
     13 C5          -0.2570    -3.3290    -0.2950 c3         1 MSP       0.188600
     14 C4          -1.7850    -3.2860     0.0100 c5         1 MSP       0.170300
     15 O4          -2.1020    -2.1730     0.8940 os         1 MSP      -0.425000
     16 C3          -2.6660    -3.0780    -1.2690 c5         1 MSP       0.107300
     17 O3          -3.9970    -3.5940    -1.1240 oh         1 MSP      -0.702000
     18 C2          -2.6910    -1.5260    -1.3430 c5         1 MSP       0.064300
     19 O2          -3.7290    -1.0710    -2.2420 oh         1 MSP      -0.699000
     20 C1          -2.9310    -1.2250     0.1930 c5         1 MSP       0.480500
     21 N9          -2.4860     0.1430     0.5500 nh         1 MSP      -0.776600
     22 C8          -1.1470     0.4080     0.3700 c2         1 MSP       0.616100
     23 N7          -0.8780     1.6220     0.0140 ne         1 MSP      -0.613300
     24 C7          -2.1140     2.2800    -0.0280 ce         1 MSP      -0.098600
     25 C6          -2.3530     3.5690     0.2060 c2         1 MSP       0.301000
     26 N6          -1.5190     4.6250     0.4010 nv         1 MSP      -0.911000
     27 N1          -3.6400     3.8790     0.4660 nu         1 MSP      -0.810200
     28 C11         -4.5920     2.9350     0.8590 c2         1 MSP       0.618100
     29 N3          -4.4160     1.6460     0.8050 n2         1 MSP      -0.627900
     30 C10         -3.2410     1.2600    -0.0290 c5         1 MSP       0.450900
     31 O1           1.9550    -0.4380     1.6850 o          1 MSP      -0.506100
     32 HN21         0.9510     1.2570    -1.0050 hn         1 MSP       0.421000
     33 HN22         2.1050     1.5300    -2.1020 hn         1 MSP       0.421000
     34 HA           3.6330    -0.0070    -1.0240 h1         1 MSP       0.062700
     35 HB1          4.0460     1.3760     1.0240 hc         1 MSP       0.072700
     36 HB2          2.5210     2.2110     0.7600 hc         1 MSP       0.072700
     37 HG1          3.3760     3.0840    -1.4360 h1         1 MSP       0.055200
     38 HG2          4.8890     2.1690    -1.2070 h1         1 MSP       0.055200
     39 HE1          6.3270     4.4420    -1.5640 h1         1 MSP       0.061367
     40 HE2          4.8100     5.3610    -1.8000 h1         1 MSP       0.061367
     41 HE3          6.0440     5.9510    -0.6490 h1         1 MSP       0.061367
     42 HN8          2.7830    -2.1100    -0.8620 hn         1 MSP       0.344500
     43 H5'1         0.0020    -2.5110    -0.9800 h1         1 MSP       0.050700
     44 H5'2        -0.0380    -4.2780    -0.8020 h1         1 MSP       0.050700
     45 H4          -2.0480    -4.2250     0.5160 h1         1 MSP       0.103700
     46 H3          -2.1890    -3.5130    -2.1590 h1         1 MSP       0.047700
     47 H2          -4.5620    -2.9860    -1.6630 ho         1 MSP       0.523000
     48 H1          -1.7150    -1.1420    -1.6710 h1         1 MSP       0.048700
     49 H9          -3.3300    -0.9790    -3.1410 ho         1 MSP       0.512000
     50 H10         -3.9860    -1.3940     0.4550 h2         1 MSP       0.099700
     51 H8          -0.4070    -0.3860     0.4950 h5         1 MSP       0.062800
     52 HN61        -0.5360     4.3710     0.3600 hn         1 MSP       0.447500
     53 HN62        -1.7480     5.2390     1.1750 hn         1 MSP       0.447500
     54 HN1         -3.8930     4.8550     0.5830 hn         1 MSP       0.495000
     55 H7          -5.4660     3.3790     1.3430 h5         1 MSP       0.040800
     56 H6          -3.5710     1.0480    -1.0540 h2         1 MSP       0.072700
@<TRIPOS>BOND
     1     1     2 1   
     2     1    32 1   
     3     1    33 1   
     4     2     3 1   
     5     2     7 1   
     6     2    34 1   
     7     3     4 1   
     8     3    35 1   
     9     3    36 1   
    10     4     5 1   
    11     4    37 1   
    12     4    38 1   
    13     5     6 1   
    14     6    39 1   
    15     6    40 1   
    16     6    41 1   
    17     7     8 1   
    18     7    31 2   
    19     8     9 1   
    20     8    42 1   
    21     9    10 2   
    22     9    11 2   
    23     9    12 1   
    24    12    13 1   
    25    13    14 1   
    26    13    43 1   
    27    13    44 1   
    28    14    15 1   
    29    14    16 1   
    30    14    45 1   
    31    15    20 1   
    32    16    17 1   
    33    16    18 1   
    34    16    46 1   
    35    17    47 1   
    36    18    19 1   
    37    18    20 1   
    38    18    48 1   
    39    19    49 1   
    40    20    21 1   
    41    20    50 1   
    42    21    22 1   
    43    21    30 1   
    44    22    23 2   
    45    22    51 1   
    46    23    24 1   
    47    24    25 2   
    48    24    30 1   
    49    25    26 1   
    50    25    27 1   
    51    26    52 1   
    52    26    53 1   
    53    27    28 1   
    54    27    54 1   
    55    28    29 2   
    56    28    55 1   
    57    29    30 1   
    58    30    56 1   
@<TRIPOS>SUBSTRUCTURE
     1 MSP         1 TEMP              0 ****  ****    0 ROOT
