@<TRIPOS>MOLECULE
MSQ
   40    42     1     0     0
SMALL
abcg2


@<TRIPOS>ATOM
      1 N1           1.6410    -0.2190    -0.5300 nb         1 MSQ      -0.271000
      2 C2           2.7170    -0.2510     0.2660 ca         1 MSQ       0.164900
      3 N3           2.7450    -0.2130     1.5660 nb         1 MSQ      -0.204000
      4 C4           1.5400    -0.1150     2.1850 ca         1 MSQ       0.066000
      5 C5           0.3330    -0.0590     1.4670 ca         1 MSQ      -0.169000
      6 C6           0.4570    -0.1340     0.0410 ca         1 MSQ       0.404900
      7 C7           1.5100    -0.0650     3.5950 ca         1 MSQ      -0.186000
      8 C8           0.3210     0.0460     4.2670 ca         1 MSQ       0.156100
      9 C9          -0.9070     0.1230     3.5360 ca         1 MSQ       0.116100
     10 C10         -0.8880     0.0680     2.1680 ca         1 MSQ      -0.160000
     11 N12         -0.6630    -0.1260    -0.7220 nu         1 MSQ      -0.931900
     12 C14         -0.8360    -0.1690    -2.1060 ca         1 MSQ       0.320000
     13 C15          0.1870    -0.0400    -3.0400 ca         1 MSQ      -0.118000
     14 C16         -0.1060    -0.0720    -4.4050 ca         1 MSQ      -0.064000
     15 C17         -1.4140    -0.2340    -4.8470 ca         1 MSQ      -0.151000
     16 C18         -2.4280    -0.3580    -3.9050 ca         1 MSQ      -0.067000
     17 C19         -2.1550    -0.3290    -2.5520 ca         1 MSQ      -0.180000
     18 S21          1.2780     0.1010    -5.4810 ss         1 MSQ      -0.154000
     19 C22          0.5450     0.1370    -7.1250 c3         1 MSQ       0.016900
     20 O26          0.1860     0.0970     5.5930 os         1 MSQ      -0.316100
     21 C27          1.3530    -0.0010     6.3900 c3         1 MSQ       0.141900
     22 O31         -2.0030     0.2500     4.2940 os         1 MSQ      -0.316100
     23 C32         -3.2560     0.3490     3.6460 c3         1 MSQ       0.143900
     24 H21          3.6720    -0.3210    -0.2470 h5         1 MSQ       0.047100
     25 H71          2.4540    -0.1170     4.1200 ha         1 MSQ       0.143000
     26 H101        -1.8250     0.1350     1.6310 ha         1 MSQ       0.112000
     27 H121        -1.5330    -0.1320    -0.2170 hn         1 MSQ       0.495000
     28 H151         1.2060     0.0850    -2.7080 ha         1 MSQ       0.164000
     29 H171        -1.6560    -0.2670    -5.9000 ha         1 MSQ       0.116000
     30 H181        -3.4500    -0.4840    -4.2360 ha         1 MSQ       0.112000
     31 H191        -2.9610    -0.4280    -1.8360 ha         1 MSQ       0.108000
     32 H221         1.3710     0.2870    -7.8170 h1         1 MSQ       0.065033
     33 H222         0.0520    -0.8020    -7.3710 h1         1 MSQ       0.065033
     34 H223        -0.1540     0.9640    -7.2340 h1         1 MSQ       0.065033
     35 H271         1.0230     0.0460     7.4240 h1         1 MSQ       0.046367
     36 H272         1.8750    -0.9470     6.2250 h1         1 MSQ       0.046367
     37 H273         2.0440     0.8230     6.1990 h1         1 MSQ       0.046367
     38 H321        -4.0010     0.4600     4.4290 h1         1 MSQ       0.042033
     39 H322        -3.3040     1.2200     2.9870 h1         1 MSQ       0.042033
     40 H323        -3.4840    -0.5490     3.0640 h1         1 MSQ       0.042033
@<TRIPOS>BOND
     1     1     2 ar  
     2     1     6 ar  
     3     2     3 ar  
     4     2    24 1   
     5     3     4 ar  
     6     4     5 ar  
     7     4     7 ar  
     8     5     6 ar  
     9     5    10 ar  
    10     6    11 1   
    11     7     8 ar  
    12     7    25 1   
    13     8     9 ar  
    14     8    20 1   
    15     9    10 ar  
    16     9    22 1   
    17    10    26 1   
    18    11    12 1   
    19    11    27 1   
    20    12    13 ar  
    21    12    17 ar  
    22    13    14 ar  
    23    13    28 1   
    24    14    15 ar  
    25    14    18 1   
    26    15    16 ar  
    27    15    29 1   
    28    16    17 ar  
    29    16    30 1   
    30    17    31 1   
    31    18    19 1   
    32    19    32 1   
    33    19    33 1   
    34    19    34 1   
    35    20    21 1   
    36    21    35 1   
    37    21    36 1   
    38    21    37 1   
    39    22    23 1   
    40    23    38 1   
    41    23    39 1   
    42    23    40 1   
@<TRIPOS>SUBSTRUCTURE
     1 MSQ         1 TEMP              0 ****  ****    0 ROOT
