@<TRIPOS>MOLECULE
MSQ
   40    42     1     0     0
SMALL
No Charge or Current Charge


@<TRIPOS>ATOM
      1 N1           1.6310    -0.7980    -0.4880 nb         1 MSQ      -0.271000
      2 C2           2.7090    -0.8710     0.3130 ca         1 MSQ       0.164900
      3 N3           2.7340    -0.6760     1.6450 nb         1 MSQ      -0.204000
      4 C4           1.5670    -0.3750     2.2500 ca         1 MSQ       0.066000
      5 C5           0.3710    -0.2690     1.4970 ca         1 MSQ      -0.169000
      6 C6           0.4620    -0.4890     0.0980 ca         1 MSQ       0.404900
      7 C7           1.5310    -0.1640     3.6380 ca         1 MSQ      -0.186000
      8 C8           0.3210     0.1530     4.2930 ca         1 MSQ       0.156100
      9 C9          -0.8730     0.2630     3.5450 ca         1 MSQ       0.116100
     10 C10         -0.8450     0.0530     2.1470 ca         1 MSQ      -0.160000
     11 N12         -0.6650    -0.4540    -0.7260 nu         1 MSQ      -0.931900
     12 C14         -0.8640    -0.4130    -2.1100 ca         1 MSQ       0.320000
     13 C15          0.0870     0.1250    -2.9980 ca         1 MSQ      -0.118000
     14 C16         -0.1570     0.1640    -4.3840 ca         1 MSQ      -0.064000
     15 C17         -1.3770    -0.3360    -4.8830 ca         1 MSQ      -0.151000
     16 C18         -2.3370    -0.8590    -4.0010 ca         1 MSQ      -0.067000
     17 C19         -2.0810    -0.8920    -2.6200 ca         1 MSQ      -0.180000
     18 S21          1.1120     0.8660    -5.4450 ss         1 MSQ      -0.154000
     19 C22          0.4560     0.7390    -7.1670 c3         1 MSQ       0.016900
     20 O26          0.2670     0.3640     5.6620 os         1 MSQ      -0.316100
     21 C27          1.4270     0.2740     6.5080 c3         1 MSQ       0.141900
     22 O31         -2.0460     0.5800     4.2140 os         1 MSQ      -0.316100
     23 C32         -3.3100     0.7170     3.5420 c3         1 MSQ       0.143900
     24 H21          3.6570    -1.1170    -0.1630 h5         1 MSQ       0.047100
     25 H71          2.4600    -0.2520     4.1940 ha         1 MSQ       0.143000
     26 H101        -1.7570     0.1460     1.5690 ha         1 MSQ       0.112000
     27 H121        -1.5290    -0.5600    -0.2020 hn         1 MSQ       0.495000
     28 H151         1.0160     0.5330    -2.6160 ha         1 MSQ       0.164000
     29 H171        -1.6020    -0.3230    -5.9450 ha         1 MSQ       0.116000
     30 H181        -3.2800    -1.2390    -4.3880 ha         1 MSQ       0.112000
     31 H191        -2.8320    -1.2990    -1.9480 ha         1 MSQ       0.108000
     32 H221         1.1920     1.1510    -7.8680 h1         1 MSQ       0.065033
     33 H222         0.2710    -0.3120    -7.4190 h1         1 MSQ       0.065033
     34 H223        -0.4770     1.3090    -7.2530 h1         1 MSQ       0.065033
     35 H271         1.1540     0.4770     7.5500 h1         1 MSQ       0.046367
     36 H272         1.8670    -0.7300     6.4620 h1         1 MSQ       0.046367
     37 H273         2.1870     1.0070     6.2080 h1         1 MSQ       0.046367
     38 H321        -4.0970     0.9700     4.2640 h1         1 MSQ       0.042033
     39 H322        -3.2690     1.5170     2.7920 h1         1 MSQ       0.042033
     40 H323        -3.5930    -0.2200     3.0470 h1         1 MSQ       0.042033
@<TRIPOS>BOND
     1     1     2 ar  
     2     1     6 ar  
     3     2     3 ar  
     4     2    24 1   
     5     3     4 ar  
     6     4     5 ar  
     7     4     7 ar  
     8     5     6 ar  
     9     5    10 ar  
    10     6    11 1   
    11     7     8 ar  
    12     7    25 1   
    13     8     9 ar  
    14     8    20 1   
    15     9    10 ar  
    16     9    22 1   
    17    10    26 1   
    18    11    12 1   
    19    11    27 1   
    20    12    13 ar  
    21    12    17 ar  
    22    13    14 ar  
    23    13    28 1   
    24    14    15 ar  
    25    14    18 1   
    26    15    16 ar  
    27    15    29 1   
    28    16    17 ar  
    29    16    30 1   
    30    17    31 1   
    31    18    19 1   
    32    19    32 1   
    33    19    33 1   
    34    19    34 1   
    35    20    21 1   
    36    21    35 1   
    37    21    36 1   
    38    21    37 1   
    39    22    23 1   
    40    23    38 1   
    41    23    39 1   
    42    23    40 1   
@<TRIPOS>SUBSTRUCTURE
     1 MSQ         1 TEMP              0 ****  ****    0 ROOT
