@<TRIPOS>MOLECULE
MSR
   20    21     1     0     0
SMALL
abcg2


@<TRIPOS>ATOM
      1 C12          0.9970    -0.1970     0.6170 ca         1 MSR      -0.074000
      2 C13          0.9400    -0.2630     2.0000 ca         1 MSR      -0.163000
      3 C14          1.7960    -1.1120     2.6970 ca         1 MSR       0.143100
      4 O17          1.7920    -1.2090     4.0390 oh         1 MSR      -0.528100
      5 C15          2.6990    -1.9040     1.9900 ca         1 MSR      -0.163000
      6 C16          2.7370    -1.8510     0.6080 ca         1 MSR      -0.074000
      7 C11          1.8930    -0.9910    -0.0850 ca         1 MSR      -0.039200
      8 N3           1.9470    -0.9270    -1.4950 na         1 MSR      -0.069300
      9 C4           0.8820    -0.8680    -2.3580 cc         1 MSR      -0.225000
     10 C5           1.4280    -0.8160    -3.6070 cd         1 MSR       0.230900
     11 NFE          2.7930    -0.8380    -3.5300 nd         1 MSR      -0.670000
     12 C2           3.0690    -0.9040    -2.2560 cc         1 MSR       0.397400
     13 H12          0.3430     0.4880     0.0910 ha         1 MSR       0.128500
     14 H13          0.2330     0.3620     2.5330 ha         1 MSR       0.128000
     15 HO17         1.1210    -0.6310     4.4190 ho         1 MSR       0.469000
     16 H15          3.3610    -2.5740     2.5240 ha         1 MSR       0.128000
     17 H16          3.4250    -2.4910     0.0710 ha         1 MSR       0.128500
     18 H4          -0.1390    -0.8900    -2.0160 h4         1 MSR       0.158000
     19 H5           0.9090    -0.7680    -4.5520 h4         1 MSR       0.039100
     20 H2           4.0570    -0.9200    -1.8190 h5         1 MSR       0.056100
@<TRIPOS>BOND
     1     1     2 ar  
     2     1     7 ar  
     3     1    13 1   
     4     2     3 ar  
     5     2    14 1   
     6     3     4 1   
     7     3     5 ar  
     8     4    15 1   
     9     5     6 ar  
    10     5    16 1   
    11     6     7 ar  
    12     6    17 1   
    13     7     8 1   
    14     8     9 1   
    15     8    12 1   
    16     9    10 2   
    17     9    18 1   
    18    10    11 1   
    19    10    19 1   
    20    11    12 2   
    21    12    20 1   
@<TRIPOS>SUBSTRUCTURE
     1 MSR         1 TEMP              0 ****  ****    0 ROOT
