@<TRIPOS>MOLECULE
MSR
   20    21     1     0     0
SMALL
No Charge or Current Charge


@<TRIPOS>ATOM
      1 C12          0.9560    -0.2390     0.6020 ca         1 MSR      -0.074000
      2 C13          0.9080    -0.2990     2.0070 ca         1 MSR      -0.163000
      3 C14          1.8070    -1.1190     2.7060 ca         1 MSR       0.143100
      4 O17          1.7670    -1.1840     4.0670 oh         1 MSR      -0.528100
      5 C15          2.7520    -1.8790     2.0040 ca         1 MSR      -0.163000
      6 C16          2.8050    -1.8220     0.5990 ca         1 MSR      -0.074000
      7 C11          1.9050    -1.0000    -0.1140 ca         1 MSR      -0.039200
      8 N3           1.9540    -0.9390    -1.5120 na         1 MSR      -0.069300
      9 C4           0.8640    -0.7830    -2.3320 cc         1 MSR      -0.225000
     10 C5           1.4030    -0.7720    -3.5950 cd         1 MSR       0.230900
     11 NFE          2.7840    -0.9150    -3.5540 nd         1 MSR      -0.670000
     12 C2           3.1020    -1.0160    -2.2670 cc         1 MSR       0.397400
     13 H12          0.2600     0.4100     0.0760 ha         1 MSR       0.128500
     14 H13          0.1720     0.2960     2.5430 ha         1 MSR       0.128000
     15 HO17         1.0510    -0.5940     4.3870 ho         1 MSR       0.469000
     16 H15          3.4460    -2.5160     2.5460 ha         1 MSR       0.128000
     17 H16          3.5390    -2.4280     0.0730 ha         1 MSR       0.128500
     18 H4          -0.1590    -0.7060    -1.9870 h4         1 MSR       0.158000
     19 H5           0.8740    -0.6720    -4.5360 h4         1 MSR       0.039100
     20 H2           4.0930    -1.1280    -1.8430 h5         1 MSR       0.056100
@<TRIPOS>BOND
     1     1     2 ar  
     2     1     7 ar  
     3     1    13 1   
     4     2     3 ar  
     5     2    14 1   
     6     3     4 1   
     7     3     5 ar  
     8     4    15 1   
     9     5     6 ar  
    10     5    16 1   
    11     6     7 ar  
    12     6    17 1   
    13     7     8 1   
    14     8     9 1   
    15     8    12 1   
    16     9    10 2   
    17     9    18 1   
    18    10    11 1   
    19    10    19 1   
    20    11    12 2   
    21    12    20 1   
@<TRIPOS>SUBSTRUCTURE
     1 MSR         1 TEMP              0 ****  ****    0 ROOT
