@<TRIPOS>MOLECULE
MST
   35    35     1     0     0
SMALL
abcg2


@<TRIPOS>ATOM
      1 N1           0.4160    -0.0140     1.6310 nb         1 MST      -0.334000
      2 C2           1.1340    -0.0010     0.5270 ca         1 MST       0.313300
      3 S7           2.8810     0.0180     0.6490 ss         1 MST      -0.317300
      4 C8           3.1410     0.0110     2.4330 c3         1 MST       0.024900
      5 N3           0.6920    -0.0010    -0.7160 nb         1 MST      -0.303000
      6 C4          -0.6440    -0.0120    -0.8220 ca         1 MST       0.443900
      7 N9          -1.2020    -0.0100    -2.0390 nu         1 MST      -0.921100
      8 C10         -0.5390    -0.0080    -3.3450 c3         1 MST       0.278200
      9 C11         -1.6620    -0.0110    -4.3810 c3         1 MST      -0.105433
     10 C12          0.3070     1.2530    -3.5290 c3         1 MST      -0.105433
     11 C13          0.3160    -1.2630    -3.5290 c3         1 MST      -0.105433
     12 N5          -1.4870    -0.0240     0.2140 nb         1 MST      -0.371000
     13 C6          -0.9080    -0.0250     1.4080 ca         1 MST       0.440900
     14 N14         -1.7060    -0.0370     2.4840 nu         1 MST      -0.926100
     15 C15         -1.2280    -0.0450     3.8490 c3         1 MST       0.245800
     16 C16         -2.3960    -0.0160     4.8160 c3         1 MST      -0.114100
     17 H83          4.2190     0.0290     2.5800 h1         1 MST       0.068033
     18 H82          2.7010     0.8880     2.9000 h1         1 MST       0.068033
     19 H81          2.7330    -0.8870     2.8890 h1         1 MST       0.068033
     20 H9          -2.2080    -0.0250    -2.0300 hn         1 MST       0.502000
     21 H113        -1.2440    -0.0080    -5.3870 hc         1 MST       0.046144
     22 H112        -2.2900    -0.8990    -4.2870 hc         1 MST       0.046144
     23 H111        -2.2980     0.8700    -4.2840 hc         1 MST       0.046144
     24 H123        -0.3060     2.1490    -3.4220 hc         1 MST       0.046144
     25 H122         1.1180     1.3000    -2.8050 hc         1 MST       0.046144
     26 H121         0.7430     1.2670    -4.5290 hc         1 MST       0.046144
     27 H133        -0.2910    -2.1640    -3.4220 hc         1 MST       0.046144
     28 H132         0.7510    -1.2750    -4.5300 hc         1 MST       0.046144
     29 H131         1.1280    -1.3040    -2.8070 hc         1 MST       0.046144
     30 H14         -2.6950    -0.0480     2.3060 hn         1 MST       0.505000
     31 H152        -0.5770     0.8150     4.0200 h1         1 MST       0.050200
     32 H151        -0.6170    -0.9330     4.0280 h1         1 MST       0.050200
     33 H163        -2.0320    -0.0210     5.8420 hc         1 MST       0.043367
     34 H162        -3.0040     0.8810     4.6870 hc         1 MST       0.043367
     35 H161        -3.0430    -0.8860     4.6920 hc         1 MST       0.043367
@<TRIPOS>BOND
     1     1     2 ar  
     2     1    13 ar  
     3     2     3 1   
     4     2     5 ar  
     5     3     4 1   
     6     4    17 1   
     7     4    18 1   
     8     4    19 1   
     9     5     6 ar  
    10     6     7 1   
    11     6    12 ar  
    12     7     8 1   
    13     7    20 1   
    14     8     9 1   
    15     8    10 1   
    16     8    11 1   
    17     9    21 1   
    18     9    22 1   
    19     9    23 1   
    20    10    24 1   
    21    10    25 1   
    22    10    26 1   
    23    11    27 1   
    24    11    28 1   
    25    11    29 1   
    26    12    13 ar  
    27    13    14 1   
    28    14    15 1   
    29    14    30 1   
    30    15    16 1   
    31    15    31 1   
    32    15    32 1   
    33    16    33 1   
    34    16    34 1   
    35    16    35 1   
@<TRIPOS>SUBSTRUCTURE
     1 MST         1 TEMP              0 ****  ****    0 ROOT
