@<TRIPOS>MOLECULE
MST
   35    35     1     0     0
SMALL
No Charge or Current Charge


@<TRIPOS>ATOM
      1 N1           0.5190    -0.0110     1.6530 nb         1 MST      -0.334000
      2 C2           1.2840    -0.0050     0.5450 ca         1 MST       0.313300
      3 S7           3.0640     0.0030     0.7290 ss         1 MST      -0.317300
      4 C8           3.3340     0.0030     2.5600 c3         1 MST       0.024900
      5 N3           0.8020    -0.0060    -0.7120 nb         1 MST      -0.303000
      6 C4          -0.5380    -0.0130    -0.8080 ca         1 MST       0.443900
      7 N9          -1.1480    -0.0140    -2.0540 nu         1 MST      -0.921100
      8 C10         -0.5710    -0.0090    -3.4090 c3         1 MST       0.278200
      9 C11         -1.7660    -0.0140    -4.3910 c3         1 MST      -0.105433
     10 C12          0.2660     1.2750    -3.6310 c3         1 MST      -0.105433
     11 C13          0.2790    -1.2840    -3.6340 c3         1 MST      -0.105433
     12 N5          -1.3910    -0.0180     0.2230 nb         1 MST      -0.371000
     13 C6          -0.8030    -0.0170     1.4230 ca         1 MST       0.440900
     14 N14         -1.6570    -0.0230     2.5060 nu         1 MST      -0.926100
     15 C15         -1.2930    -0.0230     3.9300 c3         1 MST       0.245800
     16 C16         -2.5580    -0.0310     4.8020 c3         1 MST      -0.114100
     17 H83          4.4100     0.0080     2.7740 h1         1 MST       0.068033
     18 H82          2.8760     0.8950     3.0050 h1         1 MST       0.068033
     19 H81          2.8850    -0.8950     3.0030 h1         1 MST       0.068033
     20 H9          -2.1650    -0.0190    -1.9990 hn         1 MST       0.502000
     21 H113        -1.4140    -0.0110    -5.4300 hc         1 MST       0.046144
     22 H112        -2.3890    -0.9060    -4.2510 hc         1 MST       0.046144
     23 H111        -2.3980     0.8710    -4.2480 hc         1 MST       0.046144
     24 H123        -0.3250     2.1710    -3.4100 hc         1 MST       0.046144
     25 H122         1.1610     1.2920    -2.9990 hc         1 MST       0.046144
     26 H121         0.6010     1.3390    -4.6730 hc         1 MST       0.046144
     27 H133        -0.3040    -2.1870    -3.4160 hc         1 MST       0.046144
     28 H132         0.6150    -1.3430    -4.6760 hc         1 MST       0.046144
     29 H131         1.1730    -1.2940    -3.0020 hc         1 MST       0.046144
     30 H14         -2.6490    -0.0280     2.2690 hn         1 MST       0.505000
     31 H152        -0.6960     0.8680     4.1680 h1         1 MST       0.050200
     32 H151        -0.6860    -0.9090     4.1650 h1         1 MST       0.050200
     33 H163        -2.2820    -0.0310     5.8640 hc         1 MST       0.043367
     34 H162        -3.1710     0.8570     4.6090 hc         1 MST       0.043367
     35 H161        -3.1610    -0.9250     4.6060 hc         1 MST       0.043367
@<TRIPOS>BOND
     1     1     2 ar  
     2     1    13 ar  
     3     2     3 1   
     4     2     5 ar  
     5     3     4 1   
     6     4    17 1   
     7     4    18 1   
     8     4    19 1   
     9     5     6 ar  
    10     6     7 1   
    11     6    12 ar  
    12     7     8 1   
    13     7    20 1   
    14     8     9 1   
    15     8    10 1   
    16     8    11 1   
    17     9    21 1   
    18     9    22 1   
    19     9    23 1   
    20    10    24 1   
    21    10    25 1   
    22    10    26 1   
    23    11    27 1   
    24    11    28 1   
    25    11    29 1   
    26    12    13 ar  
    27    13    14 1   
    28    14    15 1   
    29    14    30 1   
    30    15    16 1   
    31    15    31 1   
    32    15    32 1   
    33    16    33 1   
    34    16    34 1   
    35    16    35 1   
@<TRIPOS>SUBSTRUCTURE
     1 MST         1 TEMP              0 ****  ****    0 ROOT
