@<TRIPOS>MOLECULE
MSU
   16    15     1     0     0
SMALL
bcc


@<TRIPOS>ATOM
      1 C1          -2.4090    -0.1710    -0.0410 c          1 MSU       0.928600
      2 O1          -2.4510    -1.4150     0.0260 o          1 MSU      -0.843800
      3 C2          -1.0260     0.5070    -0.0280 c3         1 MSU      -0.206400
      4 C3           0.1480    -0.4550    -0.0280 c3         1 MSU      -0.108400
      5 C4           1.4870     0.2280     0.0190 c          1 MSU       0.627100
      6 OT1          1.6700     1.4150     0.1300 o          1 MSU      -0.561000
      7 OT2          2.4840    -0.6490    -0.0700 os         1 MSU      -0.432900
      8 CT           3.8160    -0.1390    -0.0270 c3         1 MSU       0.130700
      9 OXT         -3.3870     0.6020    -0.1080 o          1 MSU      -0.843800
     10 H21         -0.9640     1.1810    -0.8860 hc         1 MSU       0.032700
     11 H22         -0.9780     1.1560     0.8520 hc         1 MSU       0.032700
     12 H31          0.0890    -1.1340     0.8270 hc         1 MSU       0.072700
     13 H32          0.1230    -1.1020    -0.9090 hc         1 MSU       0.072700
     14 HT1          3.9990     0.5770    -0.8280 h1         1 MSU       0.033033
     15 HT2          4.0320     0.3350     0.9310 h1         1 MSU       0.033033
     16 HT3          4.4700    -0.9970    -0.1570 h1         1 MSU       0.033033
@<TRIPOS>BOND
     1     1     2 1   
     2     1     3 1   
     3     1     9 1   
     4     3     4 1   
     5     3    10 1   
     6     3    11 1   
     7     4     5 1   
     8     4    12 1   
     9     4    13 1   
    10     5     6 2   
    11     5     7 1   
    12     7     8 1   
    13     8    14 1   
    14     8    15 1   
    15     8    16 1   
@<TRIPOS>SUBSTRUCTURE
     1 MSU         1 TEMP              0 ****  ****    0 ROOT
