@<TRIPOS>MOLECULE
MSU
   16    15     1     0     0
SMALL
No Charge or Current Charge


@<TRIPOS>ATOM
      1 C1          -2.2870    -0.2770     0.2890 c          1 MSU       0.718000
      2 O1          -2.5290    -1.3650     0.7870 o          1 MSU      -0.738500
      3 C2          -0.8710     0.2960     0.4560 c3         1 MSU      -0.206400
      4 C3           0.0490    -0.1910    -0.6990 c3         1 MSU      -0.108400
      5 C4           1.4760     0.3530    -0.5660 c          1 MSU       0.578100
      6 OT1          1.8210     1.4570    -0.9670 o          1 MSU      -0.512000
      7 OT2          2.3060    -0.5360     0.0680 os         1 MSU      -0.456100
      8 CT           3.6780    -0.1540     0.2730 c3         1 MSU       0.153900
      9 OXT         -3.0860     0.3530    -0.3860 o          1 MSU      -0.738500
     10 H21         -0.8910     1.3900     0.3830 hc         1 MSU       0.032700
     11 H22         -0.4150    -0.0760     1.3820 hc         1 MSU       0.032700
     12 H31          0.0800    -1.2870    -0.6560 hc         1 MSU       0.072700
     13 H32         -0.3720     0.1410    -1.6550 hc         1 MSU       0.072700
     14 HT1          4.1780     0.0370    -0.6850 h1         1 MSU       0.033033
     15 HT2          3.7430     0.7530     0.8890 h1         1 MSU       0.033033
     16 HT3          4.2230    -0.9550     0.7890 h1         1 MSU       0.033033
@<TRIPOS>BOND
     1     1     2 1   
     2     1     3 1   
     3     1     9 1   
     4     3     4 1   
     5     3    10 1   
     6     3    11 1   
     7     4     5 1   
     8     4    12 1   
     9     4    13 1   
    10     5     6 2   
    11     5     7 1   
    12     7     8 1   
    13     8    14 1   
    14     8    15 1   
    15     8    16 1   
@<TRIPOS>SUBSTRUCTURE
     1 MSU         1 TEMP              0 ****  ****    0 ROOT
