@<TRIPOS>MOLECULE
MSX
   27    27     1     0     0
SMALL
No Charge or Current Charge


@<TRIPOS>ATOM
      1 O3          -0.6930     1.8510    -1.8070 oh         1 MSX      -0.668000
      2 C6          -0.2410     2.1090    -0.4690 c6         1 MSX       0.145300
      3 C           -1.2770     1.6380     0.6140 c6         1 MSX       0.147300
      4 O           -0.9320     2.2160     1.8930 oh         1 MSX      -0.704000
      5 C5           1.1430     1.4190    -0.2590 c6         1 MSX       0.119300
      6 O2           2.0350     1.7720    -1.3470 oh         1 MSX      -0.734000
      7 C3           0.9720    -0.1320    -0.1310 c6         1 MSX       0.263300
      8 S1           2.5660    -0.9940     0.2370 ss         1 MSX      -0.410000
      9 C4           1.9840    -2.7520     0.2260 c3         1 MSX       0.042900
     10 O1           0.0460    -0.4410     0.9310 os         1 MSX      -0.406000
     11 C1          -1.3000     0.0740     0.7370 c6         1 MSX       0.176300
     12 C2          -2.0010    -0.6830    -0.4380 c3         1 MSX       0.046600
     13 S           -2.1240    -2.5330    -0.2890 sh         1 MSX      -0.429800
     14 H3           0.1310     1.9120    -2.3470 ho         1 MSX       0.470000
     15 H6          -0.0960     3.1930    -0.3510 h1         1 MSX       0.043700
     16 H           -2.2800     1.9790     0.3150 h1         1 MSX       0.055700
     17 H5           1.5570     1.7820     0.6950 h1         1 MSX       0.073700
     18 HA          -1.2150     3.1610     1.8750 ho         1 MSX       0.506000
     19 H1          -1.8760    -0.1710     1.6410 h1         1 MSX       0.103700
     20 H2           2.8990     1.3310    -1.1600 ho         1 MSX       0.532000
     21 HB           0.6100    -0.5450    -1.0840 h2         1 MSX       0.069700
     22 H41C         1.2310    -2.9010     1.0110 h1         1 MSX       0.068700
     23 H42C         1.5380    -2.9920    -0.7470 h1         1 MSX       0.068700
     24 H43C         2.8300    -3.4250     0.4110 h1         1 MSX       0.068700
     25 H21C        -3.0230    -0.2920    -0.5250 h1         1 MSX       0.074200
     26 H22C        -1.4950    -0.4650    -1.3840 h1         1 MSX       0.074200
     27 HS          -2.7880    -2.7350    -1.4540 hs         1 MSX       0.201800
@<TRIPOS>BOND
     1     1     2 1   
     2     1    14 1   
     3     2     3 1   
     4     2     5 1   
     5     2    15 1   
     6     3     4 1   
     7     3    11 1   
     8     3    16 1   
     9     4    18 1   
    10     5     6 1   
    11     5     7 1   
    12     5    17 1   
    13     6    20 1   
    14     7     8 1   
    15     7    10 1   
    16     7    21 1   
    17     8     9 1   
    18     9    22 1   
    19     9    23 1   
    20     9    24 1   
    21    10    11 1   
    22    11    12 1   
    23    11    19 1   
    24    12    13 1   
    25    12    25 1   
    26    12    26 1   
    27    13    27 1   
@<TRIPOS>SUBSTRUCTURE
     1 MSX         1 TEMP              0 ****  ****    0 ROOT
