@<TRIPOS>MOLECULE
MSX
   27    27     1     0     0
SMALL
abcg2


@<TRIPOS>ATOM
      1 O3          -0.5580     1.6850    -1.7940 oh         1 MSX      -0.668000
      2 C6          -0.1660     2.0300    -0.4900 c6         1 MSX       0.145300
      3 C           -1.3070     1.6690     0.4700 c6         1 MSX       0.147300
      4 O           -1.0950     2.2780     1.7230 oh         1 MSX      -0.704000
      5 C5           1.1250     1.3170    -0.0820 c6         1 MSX       0.119300
      6 O2           2.0780     1.5820    -1.0770 oh         1 MSX      -0.734000
      7 C3           0.8550    -0.1790     0.0770 c6         1 MSX       0.263300
      8 S1           2.3690    -1.0060     0.6120 ss         1 MSX      -0.410000
      9 C4           2.1350    -2.6410    -0.1270 c3         1 MSX       0.042900
     10 O1          -0.1330    -0.3850     1.0560 os         1 MSX      -0.406000
     11 C1          -1.3980     0.1630     0.7340 c6         1 MSX       0.176300
     12 C2          -2.0920    -0.6050    -0.3850 c3         1 MSX       0.046600
     13 S           -1.9250    -2.3880    -0.0340 sh         1 MSX      -0.429800
     14 H3           0.1970     1.8180    -2.3780 ho         1 MSX       0.470000
     15 H6           0.0080     3.1160    -0.4210 h1         1 MSX       0.043700
     16 H           -2.2550     2.0010     0.0230 h1         1 MSX       0.055700
     17 H5           1.4370     1.7120     0.8960 h1         1 MSX       0.073700
     18 HA          -1.0890     3.2330     1.6030 ho         1 MSX       0.506000
     19 H1          -1.9960     0.0270     1.6400 h1         1 MSX       0.103700
     20 H2           2.8430     1.0130    -0.9280 ho         1 MSX       0.532000
     21 HB           0.5700    -0.6150    -0.8890 h2         1 MSX       0.069700
     22 H41C         1.2040    -3.0870     0.2140 h1         1 MSX       0.068700
     23 H42C         2.1390    -2.5820    -1.2140 h1         1 MSX       0.068700
     24 H43C         2.9660    -3.2640     0.1970 h1         1 MSX       0.068700
     25 H21C        -3.1480    -0.3360    -0.3830 h1         1 MSX       0.074200
     26 H22C        -1.6890    -0.3790    -1.3680 h1         1 MSX       0.074200
     27 HS          -2.8750    -2.8020    -0.8790 hs         1 MSX       0.201800
@<TRIPOS>BOND
     1     1     2 1   
     2     1    14 1   
     3     2     3 1   
     4     2     5 1   
     5     2    15 1   
     6     3     4 1   
     7     3    11 1   
     8     3    16 1   
     9     4    18 1   
    10     5     6 1   
    11     5     7 1   
    12     5    17 1   
    13     6    20 1   
    14     7     8 1   
    15     7    10 1   
    16     7    21 1   
    17     8     9 1   
    18     9    22 1   
    19     9    23 1   
    20     9    24 1   
    21    10    11 1   
    22    11    12 1   
    23    11    19 1   
    24    12    13 1   
    25    12    25 1   
    26    12    26 1   
    27    13    27 1   
@<TRIPOS>SUBSTRUCTURE
     1 MSX         1 TEMP              0 ****  ****    0 ROOT
