@<TRIPOS>MOLECULE
MSY
   28    29     1     0     0
SMALL
No Charge or Current Charge


@<TRIPOS>ATOM
      1 N            3.4680    -1.2970     1.0460 n8         1 MSY      -0.998100
      2 S            3.1860    -0.6230    -0.4190 sy         1 MSY       1.121600
      3 O1           4.3660     0.2070    -0.6510 o          1 MSY      -0.543000
      4 O2           2.8170    -1.7400    -1.2890 o          1 MSY      -0.543000
      5 CA1          1.7570     0.4160    -0.0830 ca         1 MSY      -0.246500
      6 CA2          0.4550    -0.1220    -0.1900 ca         1 MSY      -0.025000
      7 CA3         -0.6780     0.6800     0.0670 ca         1 MSY      -0.023000
      8 CA4         -0.4920     2.0260     0.4500 ca         1 MSY      -0.087000
      9 CA5          0.8020     2.5630     0.5590 ca         1 MSY      -0.109000
     10 CA6          1.9260     1.7650     0.2930 ca         1 MSY      -0.045000
     11 NB1         -1.9970     0.1100    -0.0410 n          1 MSY      -0.008400
     12 NB2         -2.2470    -1.1960     0.3370 n2         1 MSY      -0.421300
     13 CP3         -3.5000    -1.3860     0.1310 c2         1 MSY       0.341300
     14 CP4         -4.2540    -0.2030    -0.3900 c5         1 MSY      -0.257700
     15 CP5         -3.1340     0.8020    -0.5290 c          1 MSY       0.559000
     16 OPY         -3.1750     1.9300    -1.0050 o          1 MSY      -0.502000
     17 HN           3.0130    -0.6430     1.6780 hn         1 MSY       0.471000
     18 HNA          4.4590    -1.1000     1.1630 hn         1 MSY       0.471000
     19 HA2          0.3210    -1.1630    -0.4790 ha         1 MSY       0.161000
     20 HA4         -1.3460     2.6600     0.6770 ha         1 MSY       0.147000
     21 HA5          0.9340     3.6010     0.8550 ha         1 MSY       0.121000
     22 HA6          2.9210     2.1980     0.3810 ha         1 MSY       0.135000
     23 HME         -3.4920    -3.4500     0.7860 hc         1 MSY       0.061033
     24 HMEA        -4.9780    -2.5640     1.1690 hc         1 MSY       0.061033
     25 HMEB        -4.6630    -3.0910    -0.4940 hc         1 MSY       0.061033
     26 HP4         -4.7380    -0.3630    -1.3580 hc         1 MSY       0.108200
     27 HP4A        -4.9980     0.1740     0.3170 hc         1 MSY       0.108200
     28 CME         -4.1940    -2.6950     0.4140 c3         1 MSY      -0.118400
@<TRIPOS>BOND
     1     1     2 1   
     2     1    17 1   
     3     1    18 1   
     4     2     3 2   
     5     2     4 2   
     6     2     5 1   
     7     5     6 ar  
     8     5    10 ar  
     9     6     7 ar  
    10     6    19 1   
    11     7     8 ar  
    12     7    11 1   
    13     8     9 ar  
    14     8    20 1   
    15     9    10 ar  
    16     9    21 1   
    17    10    22 1   
    18    11    12 1   
    19    11    15 1   
    20    12    13 2   
    21    13    14 1   
    22    13    28 1   
    23    14    15 1   
    24    14    26 1   
    25    14    27 1   
    26    15    16 2   
    27    23    28 1   
    28    24    28 1   
    29    25    28 1   
@<TRIPOS>SUBSTRUCTURE
     1 MSY         1 TEMP              0 ****  ****    0 ROOT
