@<TRIPOS>MOLECULE
MSY
   28    29     1     0     0
SMALL
abcg2


@<TRIPOS>ATOM
      1 N            3.2400    -1.0340     1.4700 n8         1 MSY      -0.998100
      2 S            3.0110    -0.7140    -0.1350 sy         1 MSY       1.121600
      3 O1           4.1370    -0.0180    -0.7420 o          1 MSY      -0.543000
      4 O2           2.5720    -1.9670    -0.7320 o          1 MSY      -0.543000
      5 CA1          1.6520     0.4230    -0.0600 ca         1 MSY      -0.246500
      6 CA2          0.3670    -0.0930    -0.0360 ca         1 MSY      -0.025000
      7 CA3         -0.7160     0.7830     0.0230 ca         1 MSY      -0.023000
      8 CA4         -0.4750     2.1600     0.0720 ca         1 MSY      -0.087000
      9 CA5          0.8230     2.6410     0.0460 ca         1 MSY      -0.109000
     10 CA6          1.9100     1.7830    -0.0280 ca         1 MSY      -0.045000
     11 NB1         -2.0110     0.2560     0.0280 n          1 MSY      -0.008400
     12 NB2         -2.1540    -1.1200     0.0410 n2         1 MSY      -0.421300
     13 CP3         -3.3960    -1.4030     0.0060 c2         1 MSY       0.341300
     14 CP4         -4.2500    -0.1880    -0.0350 c5         1 MSY      -0.257700
     15 CP5         -3.2220     0.9120    -0.0230 c          1 MSY       0.559000
     16 OPY         -3.4020     2.1080    -0.0510 o          1 MSY      -0.502000
     17 HN           3.6490    -0.2510     1.9710 hn         1 MSY       0.471000
     18 HNA          3.8080    -1.8660     1.6020 hn         1 MSY       0.471000
     19 HA2          0.2040    -1.1590    -0.0690 ha         1 MSY       0.161000
     20 HA4         -1.2890     2.8630     0.1260 ha         1 MSY       0.147000
     21 HA5          0.9860     3.7090     0.0790 ha         1 MSY       0.121000
     22 HA6          2.9180     2.1720    -0.0600 ha         1 MSY       0.135000
     23 HME         -3.0820    -3.5100     0.0620 hc         1 MSY       0.061033
     24 HMEA        -4.5740    -2.9570     0.8460 hc         1 MSY       0.061033
     25 HMEB        -4.4730    -2.9880    -0.9040 hc         1 MSY       0.061033
     26 HP4         -4.8750    -0.1380    -0.9300 hc         1 MSY       0.108200
     27 HP4A        -4.9200    -0.1130     0.8260 hc         1 MSY       0.108200
     28 CME         -3.9000    -2.7950     0.0040 c3         1 MSY      -0.118400
@<TRIPOS>BOND
     1     1     2 1   
     2     1    17 1   
     3     1    18 1   
     4     2     3 2   
     5     2     4 2   
     6     2     5 1   
     7     5     6 ar  
     8     5    10 ar  
     9     6     7 ar  
    10     6    19 1   
    11     7     8 ar  
    12     7    11 1   
    13     8     9 ar  
    14     8    20 1   
    15     9    10 ar  
    16     9    21 1   
    17    10    22 1   
    18    11    12 1   
    19    11    15 1   
    20    12    13 2   
    21    13    14 1   
    22    13    28 1   
    23    14    15 1   
    24    14    26 1   
    25    14    27 1   
    26    15    16 2   
    27    23    28 1   
    28    24    28 1   
    29    25    28 1   
@<TRIPOS>SUBSTRUCTURE
     1 MSY         1 TEMP              0 ****  ****    0 ROOT
