@<TRIPOS>MOLECULE
MSZ
   31    32     1     0     0
SMALL
abcg2


@<TRIPOS>ATOM
      1 C16         -1.7180     1.6380     1.0350 ca         1 MSZ      -0.150000
      2 C13         -1.3170     0.4240     0.4760 ca         1 MSZ       0.204100
      3 C14         -2.2840    -0.4830     0.0510 ca         1 MSZ      -0.121000
      4 C15         -3.6320    -0.1800     0.1820 ca         1 MSZ      -0.168300
      5 C18         -4.0390     1.0290     0.7320 ca         1 MSZ      -0.131000
      6 C17         -3.0690     1.9250     1.1560 ca         1 MSZ      -0.085000
      7 C19         -4.6270    -1.1820    -0.3130 c3         1 MSZ       0.352300
      8 F22         -5.8890    -0.8340    -0.0450 f          1 MSZ      -0.124000
      9 F21         -4.5420    -1.3480    -1.6420 f          1 MSZ      -0.124000
     10 O12         -0.0430     0.0250     0.3510 os         1 MSZ      -0.333100
     11 C8           0.9940     0.9680     0.5380 c3         1 MSZ       0.041600
     12 C9           0.9440     2.1370    -0.4920 c          1 MSZ       0.709000
     13 O10          1.6010     3.1370    -0.1590 o          1 MSZ      -0.693000
     14 O11          0.3040     1.9350    -1.5320 o          1 MSZ      -0.693000
     15 C2           4.7550    -0.9740    -0.0840 ca         1 MSZ       0.104000
     16 C4           4.6270    -0.0340     0.9260 ca         1 MSZ      -0.117000
     17 C3           3.3950     0.5710     1.1300 ca         1 MSZ      -0.082000
     18 C7           2.2960     0.2460     0.3440 ca         1 MSZ      -0.022300
     19 C6           2.4520    -0.6930    -0.6730 ca         1 MSZ      -0.082000
     20 C5           3.6760    -1.3090    -0.8880 ca         1 MSZ      -0.117000
     21 H1          -0.9980     2.3680     1.3800 ha         1 MSZ       0.140000
     22 H2          -1.9600    -1.4240    -0.3770 ha         1 MSZ       0.129000
     23 H3          -5.0850     1.2810     0.8380 ha         1 MSZ       0.112000
     24 H4          -3.3700     2.8680     1.5900 ha         1 MSZ       0.104000
     25 H5           0.9610     1.3750     1.5560 h1         1 MSZ       0.040700
     26 H7           5.4720     0.2240     1.5500 ha         1 MSZ       0.112000
     27 H8           3.2930     1.2990     1.9250 ha         1 MSZ       0.128500
     28 H9           1.6190    -0.9530    -1.3120 ha         1 MSZ       0.128500
     29 H10          3.7840    -2.0420    -1.6760 ha         1 MSZ       0.112000
     30 F20         -4.4320    -2.3910     0.2320 f          1 MSZ      -0.124000
     31 CL           6.2870    -1.7430    -0.3470 cl         1 MSZ      -0.251000
@<TRIPOS>BOND
     1     1     2 ar  
     2     1     6 ar  
     3     1    21 1   
     4     2     3 ar  
     5     2    10 1   
     6     3     4 ar  
     7     3    22 1   
     8     4     5 ar  
     9     4     7 1   
    10     5     6 ar  
    11     5    23 1   
    12     6    24 1   
    13     7     8 1   
    14     7     9 1   
    15     7    30 1   
    16    10    11 1   
    17    11    12 1   
    18    11    18 1   
    19    11    25 1   
    20    12    13 1   
    21    12    14 1   
    22    15    16 ar  
    23    15    20 ar  
    24    15    31 1   
    25    16    17 ar  
    26    16    26 1   
    27    17    18 ar  
    28    17    27 1   
    29    18    19 ar  
    30    19    20 ar  
    31    19    28 1   
    32    20    29 1   
@<TRIPOS>SUBSTRUCTURE
     1 MSZ         1 TEMP              0 ****  ****    0 ROOT
