@<TRIPOS>MOLECULE
MSZ
   31    32     1     0     0
SMALL
No Charge or Current Charge


@<TRIPOS>ATOM
      1 C16         -1.7600     1.7160     0.9010 ca         1 MSZ      -0.150000
      2 C13         -1.3510     0.4750     0.3660 ca         1 MSZ       0.204100
      3 C14         -2.3180    -0.4990     0.0630 ca         1 MSZ      -0.121000
      4 C15         -3.6930    -0.2570     0.2810 ca         1 MSZ      -0.168300
      5 C18         -4.0850     0.9950     0.8030 ca         1 MSZ      -0.131000
      6 C17         -3.1250     1.9720     1.1140 ca         1 MSZ      -0.085000
      7 C19         -4.7380    -1.3250    -0.0680 c3         1 MSZ       0.352300
      8 F22         -5.8460    -1.2350     0.7030 f          1 MSZ      -0.124000
      9 F21         -5.1420    -1.2160    -1.3530 f          1 MSZ      -0.124000
     10 O12         -0.0250     0.1560     0.1370 os         1 MSZ      -0.333100
     11 C8           1.0590     1.1090     0.3030 c3         1 MSZ       0.041600
     12 C9           1.0480     2.2640    -0.7550 c          1 MSZ       0.709000
     13 O10          1.7440     3.2460    -0.5300 o          1 MSZ      -0.693000
     14 O11          0.3590     2.1550    -1.7630 o          1 MSZ      -0.693000
     15 C2           4.7970    -1.1010     0.0870 ca         1 MSZ       0.104000
     16 C4           4.4960    -0.3390     1.2280 ca         1 MSZ      -0.117000
     17 C3           3.2870     0.3750     1.2980 ca         1 MSZ      -0.082000
     18 C7           2.3720     0.3320     0.2270 ca         1 MSZ      -0.022300
     19 C6           2.6820    -0.4360    -0.9150 ca         1 MSZ      -0.082000
     20 C5           3.8910    -1.1500    -0.9840 ca         1 MSZ      -0.117000
     21 H1          -1.0410     2.4880     1.1550 ha         1 MSZ       0.140000
     22 H2          -1.9870    -1.4490    -0.3490 ha         1 MSZ       0.129000
     23 H3          -5.1380     1.2170     0.9690 ha         1 MSZ       0.112000
     24 H4          -3.4400     2.9300     1.5200 ha         1 MSZ       0.104000
     25 H5           0.9950     1.5740     1.2940 h1         1 MSZ       0.040700
     26 H7           5.1990    -0.3030     2.0570 ha         1 MSZ       0.112000
     27 H8           3.0620     0.9630     2.1860 ha         1 MSZ       0.128500
     28 H9           1.9830    -0.4800    -1.7480 ha         1 MSZ       0.128500
     29 H10          4.1250    -1.7400    -1.8660 ha         1 MSZ       0.112000
     30 F20         -4.2610    -2.5820     0.0900 f          1 MSZ      -0.124000
     31 Cl           6.3090    -1.9940     0.0010 cl         1 MSZ      -0.251000
@<TRIPOS>BOND
     1     1     2 ar  
     2     1     6 ar  
     3     1    21 1   
     4     2     3 ar  
     5     2    10 1   
     6     3     4 ar  
     7     3    22 1   
     8     4     5 ar  
     9     4     7 1   
    10     5     6 ar  
    11     5    23 1   
    12     6    24 1   
    13     7     8 1   
    14     7     9 1   
    15     7    30 1   
    16    10    11 1   
    17    11    12 1   
    18    11    18 1   
    19    11    25 1   
    20    12    13 1   
    21    12    14 1   
    22    15    16 ar  
    23    15    20 ar  
    24    15    31 1   
    25    16    17 ar  
    26    16    26 1   
    27    17    18 ar  
    28    17    27 1   
    29    18    19 ar  
    30    19    20 ar  
    31    19    28 1   
    32    20    29 1   
@<TRIPOS>SUBSTRUCTURE
     1 MSZ         1 TEMP              0 ****  ****    0 ROOT
