@<TRIPOS>MOLECULE
MT0
   19    20     1     0     0
SMALL
No Charge or Current Charge


@<TRIPOS>ATOM
      1 C1           2.6300     2.0990    -0.0140 c3         1 MT0      -0.150400
      2 C2           1.2660     1.4230    -0.0270 ca         1 MT0       0.327300
      3 N3           0.1930     2.2540    -0.0590 nb         1 MT0      -0.319000
      4 N4          -1.0630     1.7640    -0.0730 nb         1 MT0      -0.315000
      5 C5          -1.2860     0.4280    -0.0550 ca         1 MT0       0.406000
      6 Cl6         -2.9800    -0.0680    -0.0760 cl         1 MT0      -0.154000
      7 C7          -0.2180    -0.5030    -0.0210 ca         1 MT0      -0.060000
      8 C8          -0.4280    -1.8990    -0.0020 ca         1 MT0      -0.076000
      9 C9           0.6710    -2.7750     0.0320 ca         1 MT0      -0.095000
     10 C10          1.9790    -2.2660     0.0470 ca         1 MT0      -0.093000
     11 C11          2.1990    -0.8790     0.0270 ca         1 MT0      -0.087000
     12 C12          1.1030     0.0130    -0.0060 ca         1 MT0      -0.064000
     13 H11C         3.1910     1.8300     0.8880 hc         1 MT0       0.059033
     14 H12C         3.2220     1.8000    -0.8870 hc         1 MT0       0.059033
     15 H13C         2.5440     3.1920    -0.0340 hc         1 MT0       0.059033
     16 H8          -1.4310    -2.3180    -0.0120 ha         1 MT0       0.135000
     17 H9           0.5070    -3.8510     0.0470 ha         1 MT0       0.122000
     18 H10          2.8260    -2.9490     0.0730 ha         1 MT0       0.121000
     19 H11          3.2220    -0.5110     0.0390 ha         1 MT0       0.124000
@<TRIPOS>BOND
     1     1     2 1   
     2     1    13 1   
     3     1    14 1   
     4     1    15 1   
     5     2     3 ar  
     6     2    12 ar  
     7     3     4 ar  
     8     4     5 ar  
     9     5     6 1   
    10     5     7 ar  
    11     7     8 ar  
    12     7    12 ar  
    13     8     9 ar  
    14     8    16 1   
    15     9    10 ar  
    16     9    17 1   
    17    10    11 ar  
    18    10    18 1   
    19    11    12 ar  
    20    11    19 1   
@<TRIPOS>SUBSTRUCTURE
     1 MT0         1 TEMP              0 ****  ****    0 ROOT
