@<TRIPOS>MOLECULE
MT0
   19    20     1     0     0
SMALL
abcg2


@<TRIPOS>ATOM
      1 C1           2.5920     2.0670    -0.0160 c3         1 MT0      -0.150400
      2 C2           1.2420     1.4300    -0.0280 ca         1 MT0       0.327300
      3 N3           0.2130     2.2290    -0.0600 nb         1 MT0      -0.319000
      4 N4          -1.0370     1.7380    -0.0730 nb         1 MT0      -0.315000
      5 C5          -1.2360     0.4670    -0.0550 ca         1 MT0       0.406000
      6 CL6         -2.8890    -0.0380    -0.0720 cl         1 MT0      -0.154000
      7 C7          -0.2080    -0.5150    -0.0210 ca         1 MT0      -0.060000
      8 C8          -0.4140    -1.9050    -0.0030 ca         1 MT0      -0.076000
      9 C9           0.6680    -2.7460     0.0310 ca         1 MT0      -0.095000
     10 C10          1.9760    -2.2310     0.0480 ca         1 MT0      -0.093000
     11 C11          2.1930    -0.8770     0.0290 ca         1 MT0      -0.087000
     12 C12          1.0990     0.0070    -0.0060 ca         1 MT0      -0.064000
     13 H11C         3.1530     1.7780     0.8740 hc         1 MT0       0.059033
     14 H12C         3.1790     1.7600    -0.8820 hc         1 MT0       0.059033
     15 H13C         2.4970     3.1500    -0.0280 hc         1 MT0       0.059033
     16 H8          -1.4170    -2.3080    -0.0150 ha         1 MT0       0.135000
     17 H9           0.5170    -3.8170     0.0460 ha         1 MT0       0.122000
     18 H10          2.8160    -2.9120     0.0750 ha         1 MT0       0.121000
     19 H11          3.2030    -0.4920     0.0420 ha         1 MT0       0.124000
@<TRIPOS>BOND
     1     1     2 1   
     2     1    13 1   
     3     1    14 1   
     4     1    15 1   
     5     2     3 ar  
     6     2    12 ar  
     7     3     4 ar  
     8     4     5 ar  
     9     5     6 1   
    10     5     7 ar  
    11     7     8 ar  
    12     7    12 ar  
    13     8     9 ar  
    14     8    16 1   
    15     9    10 ar  
    16     9    17 1   
    17    10    11 ar  
    18    10    18 1   
    19    11    12 ar  
    20    11    19 1   
@<TRIPOS>SUBSTRUCTURE
     1 MT0         1 TEMP              0 ****  ****    0 ROOT
