@<TRIPOS>MOLECULE
MT1
   54    56     1     0     0
SMALL
No Charge or Current Charge


@<TRIPOS>ATOM
      1 N1           5.6120     4.8710    -9.3530 na         1 MT1      -0.540000
      2 C2           6.2840     5.7520   -10.1370 ca         1 MT1       0.771000
      3 NA2          6.9860     5.3040   -11.1760 nv         1 MT1      -0.608500
      4 N3           6.3360     7.0620   -10.0000 nb         1 MT1      -0.857000
      5 C4           5.6520     7.5370    -8.9720 ca         1 MT1       0.754900
      6 NA4          5.7890     8.8660    -8.9490 nv         1 MT1      -0.950900
      7 C4A          4.8810     6.7790    -8.0520 ca         1 MT1       0.122000
      8 N5           4.1720     7.3380    -7.0140 nb         1 MT1      -0.573000
      9 C6           3.4810     6.4710    -6.2220 ca         1 MT1       0.289300
     10 C7           3.5010     5.0750    -6.4680 ca         1 MT1       0.364900
     11 N8           4.2020     4.5230    -7.4990 nb         1 MT1      -0.664000
     12 C8A          4.8910     5.3710    -8.2930 ca         1 MT1       0.448500
     13 C9           2.6880     7.0670    -5.0530 c3         1 MT1       0.188500
     14 N10          1.4760     6.3110    -4.6130 nh         1 MT1      -0.815400
     15 CM           0.2560     6.4710    -5.4400 c3         1 MT1       0.225100
     16 C11          1.3860     4.1720    -0.9180 ca         1 MT1      -0.106600
     17 C12          0.2230     4.7860    -1.4290 ca         1 MT1      -0.030500
     18 C13          0.2540     5.4900    -2.6460 ca         1 MT1      -0.198500
     19 C14          1.4450     5.6020    -3.3850 ca         1 MT1       0.276000
     20 C15          2.6070     4.9880    -2.8790 ca         1 MT1      -0.198500
     21 C16          2.5830     4.2810    -1.6640 ca         1 MT1      -0.030500
     22 O            0.2730     3.3410     1.0420 o          1 MT1      -0.662100
     23 N            2.4840     2.8570     0.8590 ns         1 MT1      -0.427900
     24 CA           2.6260     2.0360     2.0820 c3         1 MT1      -0.029300
     25 CT           4.0710     2.1420     2.6750 c          1 MT1       0.719000
     26 O1           4.9720     2.5810     1.9710 o          1 MT1      -0.740500
     27 O2           4.2250     1.8800     3.8610 o          1 MT1      -0.740500
     28 CB           2.1710     0.5660     1.8580 c3         1 MT1      -0.056400
     29 CG           3.0220    -0.2920     0.8750 c3         1 MT1      -0.183400
     30 CD           2.8260     0.1230    -0.5980 c          1 MT1       0.710000
     31 OE1          3.6270     0.9000    -1.0960 o          1 MT1      -0.749000
     32 OE2          1.8720    -0.3420    -1.2030 o          1 MT1      -0.749000
     33 H            3.2990     2.9360     0.2640 hn         1 MT1       0.343500
     34 H1           5.6170     3.8850    -9.5530 hn         1 MT1       0.373000
     35 HA21         7.5940     5.9740   -11.6200 hn         1 MT1       0.371500
     36 HA22         7.2430     4.3300   -11.2090 hn         1 MT1       0.371500
     37 HA41         6.0920     9.2470    -9.8330 hn         1 MT1       0.547500
     38 HA42         5.0580     9.3760    -8.4680 hn         1 MT1       0.547500
     39 H7           2.9490     4.3830    -5.8330 h4         1 MT1       0.050100
     40 H91          3.3780     7.1980    -4.2090 h1         1 MT1       0.069700
     41 H92          2.3850     8.0850    -5.3350 h1         1 MT1       0.069700
     42 HM1          0.5200     6.7030    -6.4800 h1         1 MT1       0.027033
     43 HM2         -0.3680     7.2860    -5.0500 h1         1 MT1       0.027033
     44 HM3         -0.3300     5.5430    -5.4430 h1         1 MT1       0.027033
     45 H12         -0.7150     4.7230    -0.8810 ha         1 MT1       0.140000
     46 H13         -0.6600     5.9570    -2.9990 ha         1 MT1       0.087500
     47 H15          3.5410     5.0420    -3.4280 ha         1 MT1       0.087500
     48 H16          3.5070     3.8220    -1.3210 ha         1 MT1       0.140000
     49 HA           1.9620     2.4710     2.8410 h1         1 MT1       0.040700
     50 HB1          1.1260     0.5580     1.5260 hc         1 MT1       0.033200
     51 HB2          2.1770     0.0640     2.8340 hc         1 MT1       0.033200
     52 HG1          4.0710    -0.1800     1.1750 hc         1 MT1       0.024200
     53 HG2          2.6420    -1.3120     1.0120 hc         1 MT1       0.024200
     54 C            1.3150     3.4270     0.4010 c          1 MT1       0.612700
@<TRIPOS>BOND
     1     1     2 1   
     2     1    12 2   
     3     1    34 1   
     4     2     3 1   
     5     2     4 ar  
     6     3    35 1   
     7     3    36 1   
     8     4     5 ar  
     9     5     6 1   
    10     5     7 ar  
    11     6    37 1   
    12     6    38 1   
    13     7     8 ar  
    14     7    12 ar  
    15     8     9 ar  
    16     9    10 ar  
    17     9    13 1   
    18    10    11 ar  
    19    10    39 1   
    20    11    12 ar  
    21    13    14 1   
    22    13    40 1   
    23    13    41 1   
    24    14    15 1   
    25    14    19 1   
    26    15    42 1   
    27    15    43 1   
    28    15    44 1   
    29    16    17 ar  
    30    16    21 ar  
    31    16    54 1   
    32    17    18 ar  
    33    17    45 1   
    34    18    19 ar  
    35    18    46 1   
    36    19    20 ar  
    37    20    21 ar  
    38    20    47 1   
    39    21    48 1   
    40    22    54 2   
    41    23    24 1   
    42    23    33 1   
    43    23    54 1   
    44    24    25 1   
    45    24    28 1   
    46    24    49 1   
    47    25    26 1   
    48    25    27 1   
    49    28    29 1   
    50    28    50 1   
    51    28    51 1   
    52    29    30 1   
    53    29    52 1   
    54    29    53 1   
    55    30    31 1   
    56    30    32 1   
@<TRIPOS>SUBSTRUCTURE
     1 MT1         1 TEMP              0 ****  ****    0 ROOT
