@<TRIPOS>MOLECULE
MT1
   54    56     1     0     0
SMALL
abcg2


@<TRIPOS>ATOM
      1 N1           6.2820     5.1690    -8.0400 na         1 MT1      -0.540000
      2 C2           5.5790     4.2080    -8.6820 ca         1 MT1       0.771000
      3 NA2          6.1890     3.4910    -9.6030 nv         1 MT1      -0.608500
      4 N3           4.3010     3.9570    -8.4200 nb         1 MT1      -0.857000
      5 C4           3.6670     4.6710    -7.5090 ca         1 MT1       0.754900
      6 NA4          2.4090     4.4300    -7.2280 nv         1 MT1      -0.950900
      7 C4A          4.3470     5.7400    -6.7990 ca         1 MT1       0.122000
      8 N5           3.7080     6.4820    -5.9030 nb         1 MT1      -0.573000
      9 C6           4.3870     7.4250    -5.2950 ca         1 MT1       0.289300
     10 C7           5.7510     7.6170    -5.5970 ca         1 MT1       0.364900
     11 N8           6.3930     6.8950    -6.4870 nb         1 MT1      -0.664000
     12 C8A          5.6830     5.9530    -7.0950 ca         1 MT1       0.448500
     13 C9           3.6830     8.3070    -4.2930 c3         1 MT1       0.188500
     14 N10          2.3590     7.8680    -3.9630 nh         1 MT1      -0.815400
     15 CM           1.2750     8.3220    -4.8040 c3         1 MT1       0.225100
     16 C11          1.7540     4.5720    -1.4090 ca         1 MT1      -0.106600
     17 C12          0.6980     5.1680    -2.0920 ca         1 MT1      -0.030500
     18 C13          0.8960     6.2270    -2.9570 ca         1 MT1      -0.198500
     19 C14          2.1770     6.7720    -3.1570 ca         1 MT1       0.276000
     20 C15          3.2440     6.1620    -2.4730 ca         1 MT1      -0.198500
     21 C16          3.0280     5.0930    -1.6240 ca         1 MT1      -0.030500
     22 O            0.3550     3.3370     0.0460 o          1 MT1      -0.662100
     23 N            2.4950     2.6560    -0.1720 ns         1 MT1      -0.427900
     24 CA           2.4210     1.5260     0.7220 c3         1 MT1      -0.029300
     25 CT           3.8480     1.1290     1.1690 c          1 MT1       0.719000
     26 O1           4.8060     1.6750     0.5860 o          1 MT1      -0.740500
     27 O2           3.9090     0.2740     2.0710 o          1 MT1      -0.740500
     28 CB           1.7050     0.3270     0.0880 c3         1 MT1      -0.056400
     29 CG           2.3460    -0.1580    -1.2090 c3         1 MT1      -0.183400
     30 CD           2.1310     0.7730    -2.4190 c          1 MT1       0.710000
     31 OE1          3.1350     1.0580    -3.1050 o          1 MT1      -0.749000
     32 OE2          0.9570     1.1270    -2.6470 o          1 MT1      -0.749000
     33 H            3.3630     2.7280    -0.6800 hn         1 MT1       0.343500
     34 H1           7.2600     5.3260    -8.2480 hn         1 MT1       0.373000
     35 HA21         5.6760     2.7700   -10.0830 hn         1 MT1       0.371500
     36 HA22         7.1530     3.6360    -9.8560 hn         1 MT1       0.371500
     37 HA41         1.9030     3.6970    -7.7000 hn         1 MT1       0.547500
     38 HA42         1.9310     4.9750    -6.5270 hn         1 MT1       0.547500
     39 H7           6.3180     8.3880    -5.0890 h4         1 MT1       0.050100
     40 H91          4.3000     8.4100    -3.3970 h1         1 MT1       0.069700
     41 H92          3.6210     9.3170    -4.7060 h1         1 MT1       0.069700
     42 HM1          1.6090     9.1770    -5.3870 h1         1 MT1       0.027033
     43 HM2          0.4190     8.6510    -4.2110 h1         1 MT1       0.027033
     44 HM3          0.9310     7.5520    -5.5020 h1         1 MT1       0.027033
     45 H12         -0.3070     4.7920    -1.9530 ha         1 MT1       0.140000
     46 H13          0.0370     6.6340    -3.4720 ha         1 MT1       0.087500
     47 H15          4.2590     6.5160    -2.5840 ha         1 MT1       0.087500
     48 H16          3.8880     4.6870    -1.1040 ha         1 MT1       0.140000
     49 HA           1.8600     1.8240     1.6140 h1         1 MT1       0.040700
     50 HB1          0.6640     0.5900    -0.1050 hc         1 MT1       0.033200
     51 HB2          1.6940    -0.4770     0.8270 hc         1 MT1       0.033200
     52 HG1          3.4110    -0.3510    -1.0620 hc         1 MT1       0.024200
     53 HG2          1.8970    -1.1260    -1.4630 hc         1 MT1       0.024200
     54 C            1.4690     3.4610    -0.4600 c          1 MT1       0.612700
@<TRIPOS>BOND
     1     1     2 1   
     2     1    12 2   
     3     1    34 1   
     4     2     3 1   
     5     2     4 ar  
     6     3    35 1   
     7     3    36 1   
     8     4     5 ar  
     9     5     6 1   
    10     5     7 ar  
    11     6    37 1   
    12     6    38 1   
    13     7     8 ar  
    14     7    12 ar  
    15     8     9 ar  
    16     9    10 ar  
    17     9    13 1   
    18    10    11 ar  
    19    10    39 1   
    20    11    12 ar  
    21    13    14 1   
    22    13    40 1   
    23    13    41 1   
    24    14    15 1   
    25    14    19 1   
    26    15    42 1   
    27    15    43 1   
    28    15    44 1   
    29    16    17 ar  
    30    16    21 ar  
    31    16    54 1   
    32    17    18 ar  
    33    17    45 1   
    34    18    19 ar  
    35    18    46 1   
    36    19    20 ar  
    37    20    21 ar  
    38    20    47 1   
    39    21    48 1   
    40    22    54 2   
    41    23    24 1   
    42    23    33 1   
    43    23    54 1   
    44    24    25 1   
    45    24    28 1   
    46    24    49 1   
    47    25    26 1   
    48    25    27 1   
    49    28    29 1   
    50    28    50 1   
    51    28    51 1   
    52    29    30 1   
    53    29    52 1   
    54    29    53 1   
    55    30    31 1   
    56    30    32 1   
@<TRIPOS>SUBSTRUCTURE
     1 MT1         1 TEMP              0 ****  ****    0 ROOT
