@<TRIPOS>MOLECULE
MT3
   61    65     1     0     0
SMALL
abcg2


@<TRIPOS>ATOM
      1 N1           4.9700     1.7640    -0.8490 n          1 MT3      -0.312300
      2 N3          -5.2820     2.2320     1.4130 nb         1 MT3      -0.683000
      3 C4           8.9880    -2.7080     1.3940 ca         1 MT3      -0.102000
      4 C5           8.8350    -2.5760     0.0200 ca         1 MT3      -0.108000
      5 C6           8.2360    -1.4400    -0.5080 ca         1 MT3      -0.090000
      6 C7           2.9370     0.5370    -0.5750 cc         1 MT3      -0.222400
      7 C8           3.5730     1.7720    -0.9710 c          1 MT3       0.566200
      8 C10          3.7240    -0.4770    -0.1270 cd         1 MT3       0.107600
      9 C13          0.7950    -0.1640     0.4460 ca         1 MT3      -0.144000
     10 C15          0.7390     0.8200    -1.7450 ca         1 MT3      -0.087000
     11 C17         -4.8130     0.2620     0.0680 ca         1 MT3      -0.088000
     12 C20         -7.5090    -0.4400     0.3620 ca         1 MT3       0.146100
     13 C21         -7.0400     0.7060     0.9440 ca         1 MT3      -0.184000
     14 C22         -5.6840     1.0890     0.8120 ca         1 MT3       0.304000
     15 C24         -3.0640     1.8370     0.5800 ca         1 MT3      -0.254000
     16 C26         -6.3770    -3.2440    -1.6710 c3         1 MT3       0.143900
     17 C27         -9.7000    -0.1290     1.1820 c3         1 MT3       0.142900
     18 O2          -8.7680    -0.8840     0.4310 os         1 MT3      -0.317100
     19 C19         -6.6200    -1.2730    -0.3940 ca         1 MT3       0.116100
     20 O1          -7.1910    -2.3680    -0.9150 os         1 MT3      -0.320100
     21 C18         -5.3060    -0.9230    -0.5310 ca         1 MT3      -0.154000
     22 C23         -4.0260     2.5740     1.2890 ca         1 MT3       0.377900
     23 C25         -3.4660     0.6760    -0.0300 ca         1 MT3       0.183100
     24 C11         -1.3020     0.0860    -0.7160 ca         1 MT3       0.051100
     25 C12         -0.5720    -0.3240     0.3880 ca         1 MT3       0.159000
     26 F1          -1.2220    -0.8680     1.4210 f          1 MT3      -0.162000
     27 C16         -0.6380     0.6600    -1.7860 ca         1 MT3      -0.089000
     28 C14          1.4720     0.4110    -0.6310 ca         1 MT3       0.006200
     29 O4           2.9870     2.7640    -1.3710 o          1 MT3      -0.539000
     30 C29          5.6920     2.9740    -1.2320 c3         1 MT3       0.059300
     31 N2           5.0670    -0.4120    -0.0150 nd         1 MT3      -0.631300
     32 C9           5.6490     0.6900    -0.3690 cc         1 MT3       0.509900
     33 C1           7.7860    -0.4240     0.3280 ca         1 MT3      -0.071300
     34 C2           7.9450    -0.5620     1.7020 ca         1 MT3      -0.090000
     35 C3           8.5420    -1.6960     2.2350 ca         1 MT3      -0.108000
     36 H4           9.4550    -3.5920     1.8070 ha         1 MT3       0.114000
     37 H5           9.1840    -3.3580    -0.6420 ha         1 MT3       0.114000
     38 H6           8.1220    -1.3410    -1.5810 ha         1 MT3       0.109000
     39 H10          3.2790    -1.4230     0.1620 h4         1 MT3       0.217000
     40 H13          1.3250    -0.4750     1.3380 ha         1 MT3       0.135000
     41 H15          1.2370     1.2550    -2.5990 ha         1 MT3       0.135000
     42 H21         -7.6840     1.3530     1.5240 ha         1 MT3       0.139000
     43 H24         -2.0490     2.2040     0.5250 ha         1 MT3       0.135000
     44 H26         -7.0200    -4.0560    -1.9990 h1         1 MT3       0.042033
     45 H26A        -5.9550    -2.7470    -2.5480 h1         1 MT3       0.042033
     46 H26B        -5.5620    -3.6560    -1.0710 h1         1 MT3       0.042033
     47 H28          7.5670     1.0280    -1.2280 hc         1 MT3       0.068700
     48 H28A         7.3780     1.6750     0.3780 hc         1 MT3       0.068700
     49 H27        -10.6460    -0.6620     1.1250 h1         1 MT3       0.044033
     50 H27A        -9.4010    -0.0460     2.2290 h1         1 MT3       0.044033
     51 H27B        -9.8320     0.8750     0.7710 h1         1 MT3       0.044033
     52 H18         -4.6300    -1.5470    -1.0980 ha         1 MT3       0.135000
     53 H23         -3.7200     3.4950     1.7730 h4         1 MT3       0.017100
     54 H16         -1.2000     0.9770    -2.6540 ha         1 MT3       0.135000
     55 H29          4.9960     3.6750    -1.6750 h1         1 MT3       0.061367
     56 H29A         6.1500     3.4380    -0.3600 h1         1 MT3       0.061367
     57 H29B         6.4620     2.7420    -1.9630 h1         1 MT3       0.061367
     58 H2           7.6030     0.2260     2.3630 ha         1 MT3       0.109000
     59 H3           8.6620    -1.7890     3.3070 ha         1 MT3       0.114000
     60 C28          7.1430     0.8060    -0.2440 c3         1 MT3      -0.071400
     61 O3          -2.6530    -0.1220    -0.7610 os         1 MT3      -0.236200
@<TRIPOS>BOND
     1     1     7 1   
     2     1    30 1   
     3     1    32 1   
     4     2    14 ar  
     5     2    22 ar  
     6     3     4 ar  
     7     3    35 ar  
     8     3    36 1   
     9     4     5 ar  
    10     4    37 1   
    11     5    33 ar  
    12     5    38 1   
    13     6     7 1   
    14     6     8 2   
    15     6    28 1   
    16     7    29 2   
    17     8    31 1   
    18     8    39 1   
    19     9    25 ar  
    20     9    28 ar  
    21     9    40 1   
    22    10    27 ar  
    23    10    28 ar  
    24    10    41 1   
    25    11    14 ar  
    26    11    21 ar  
    27    11    23 ar  
    28    12    13 ar  
    29    12    18 1   
    30    12    19 ar  
    31    13    14 ar  
    32    13    42 1   
    33    15    22 ar  
    34    15    23 ar  
    35    15    43 1   
    36    16    20 1   
    37    16    44 1   
    38    16    45 1   
    39    16    46 1   
    40    17    18 1   
    41    17    49 1   
    42    17    50 1   
    43    17    51 1   
    44    19    20 1   
    45    19    21 ar  
    46    21    52 1   
    47    22    53 1   
    48    23    61 1   
    49    24    25 ar  
    50    24    27 ar  
    51    24    61 1   
    52    25    26 1   
    53    27    54 1   
    54    30    55 1   
    55    30    56 1   
    56    30    57 1   
    57    31    32 2   
    58    32    60 1   
    59    33    34 ar  
    60    33    60 1   
    61    34    35 ar  
    62    34    58 1   
    63    35    59 1   
    64    47    60 1   
    65    48    60 1   
@<TRIPOS>SUBSTRUCTURE
     1 MT3         1 TEMP              0 ****  ****    0 ROOT
