@<TRIPOS>MOLECULE
MT3
   61    65     1     0     0
SMALL
No Charge or Current Charge


@<TRIPOS>ATOM
      1 N1           5.0380     1.8620    -0.8820 n          1 MT3      -0.312300
      2 N3          -5.3550     2.2600     1.4710 nb         1 MT3      -0.683000
      3 C4           8.7160    -2.9250     1.6970 ca         1 MT3      -0.102000
      4 C5           8.6690    -2.8700     0.2930 ca         1 MT3      -0.108000
      5 C6           8.1570    -1.7290    -0.3500 ca         1 MT3      -0.090000
      6 C7           2.9340     0.7230    -0.7330 cc         1 MT3      -0.222400
      7 C8           3.6540     1.9660    -1.0060 c          1 MT3       0.566200
      8 C10          3.5570    -0.4530    -0.3770 cd         1 MT3       0.107600
      9 C13          0.7120     0.1940     0.2660 ca         1 MT3      -0.144000
     10 C15          0.8250     0.9690    -2.0350 ca         1 MT3      -0.087000
     11 C17         -4.8360     0.4190    -0.0160 ca         1 MT3      -0.088000
     12 C20         -7.3630    -0.6820     0.5770 ca         1 MT3       0.146100
     13 C21         -6.9550     0.5340     1.1670 ca         1 MT3      -0.184000
     14 C22         -5.7000     1.0930     0.8810 ca         1 MT3       0.304000
     15 C24         -3.2360     2.2030     0.3200 ca         1 MT3      -0.254000
     16 C26         -6.1140    -3.3000    -1.8020 c3         1 MT3       0.143900
     17 C27         -9.5480    -0.6390     1.7460 c3         1 MT3       0.142900
     18 O2          -8.6000    -1.2460     0.8500 os         1 MT3      -0.317100
     19 C19         -6.4990    -1.3530    -0.3180 ca         1 MT3       0.116100
     20 O1          -6.9240    -2.5450    -0.8830 os         1 MT3      -0.320100
     21 C18         -5.2340    -0.7980    -0.6120 ca         1 MT3      -0.154000
     22 C23         -4.1490     2.8000     1.1930 ca         1 MT3       0.377900
     23 C25         -3.5760     0.9880    -0.2910 ca         1 MT3       0.183100
     24 C11         -1.3360     0.4560    -1.0360 ca         1 MT3       0.051100
     25 C12         -0.6860     0.1040     0.1670 ca         1 MT3       0.159000
     26 F1          -1.3940    -0.3360     1.2330 f          1 MT3      -0.162000
     27 C16         -0.5750     0.8790    -2.1380 ca         1 MT3      -0.089000
     28 C14          1.4770     0.6300    -0.8330 ca         1 MT3       0.006200
     29 O4           3.0890     3.0090    -1.3140 o          1 MT3      -0.539000
     30 C29          5.8620     3.0700    -1.1740 c3         1 MT3       0.059300
     31 N2           4.9450    -0.4700    -0.2410 nd         1 MT3      -0.631300
     32 C9           5.6220     0.6600    -0.4740 cc         1 MT3       0.509900
     33 C1           7.6860    -0.6370     0.4070 ca         1 MT3      -0.071300
     34 C2           7.7360    -0.6990     1.8140 ca         1 MT3      -0.090000
     35 C3           8.2490    -1.8390     2.4560 ca         1 MT3      -0.108000
     36 H4           9.1120    -3.8080     2.1940 ha         1 MT3       0.114000
     37 H5           9.0300    -3.7100    -0.2960 ha         1 MT3       0.114000
     38 H6           8.1230    -1.6970    -1.4370 ha         1 MT3       0.109000
     39 H10          3.0190    -1.3820    -0.1900 h4         1 MT3       0.217000
     40 H13          1.1970    -0.0720     1.2020 ha         1 MT3       0.135000
     41 H15          1.4050     1.3010    -2.8940 ha         1 MT3       0.135000
     42 H21         -7.6020     1.0660     1.8560 ha         1 MT3       0.139000
     43 H24         -2.2840     2.6880     0.1260 ha         1 MT3       0.135000
     44 H26         -6.6460    -4.2050    -2.1220 h1         1 MT3       0.042033
     45 H26A        -5.8840    -2.7080    -2.6970 h1         1 MT3       0.042033
     46 H26B        -5.1730    -3.6090    -1.3300 h1         1 MT3       0.042033
     47 H28          7.6060     0.7060    -1.2750 hc         1 MT3       0.068700
     48 H28A         7.4580     1.4850     0.2810 hc         1 MT3       0.068700
     49 H27        -10.4540    -1.2540     1.8130 h1         1 MT3       0.044033
     50 H27A        -9.1270    -0.5450     2.7550 h1         1 MT3       0.044033
     51 H27B        -9.8400     0.3570     1.3900 h1         1 MT3       0.044033
     52 H18         -4.5570    -1.3010    -1.2960 ha         1 MT3       0.135000
     53 H23         -3.9140     3.7430     1.6850 h4         1 MT3       0.017100
     54 H16         -1.0700     1.1420    -3.0700 ha         1 MT3       0.135000
     55 H29          5.2990     3.8190    -1.7450 h1         1 MT3       0.061367
     56 H29A         6.1950     3.5260    -0.2330 h1         1 MT3       0.061367
     57 H29B         6.7390     2.7990    -1.7740 h1         1 MT3       0.061367
     58 H2           7.3760     0.1370     2.4100 ha         1 MT3       0.109000
     59 H3           8.2840    -1.8810     3.5430 ha         1 MT3       0.114000
     60 C28          7.1340     0.6080    -0.2910 c3         1 MT3      -0.071400
     61 O3          -2.7060     0.3730    -1.1680 os         1 MT3      -0.236200
@<TRIPOS>BOND
     1     1     7 1   
     2     1    30 1   
     3     1    32 1   
     4     2    14 ar  
     5     2    22 ar  
     6     3     4 ar  
     7     3    35 ar  
     8     3    36 1   
     9     4     5 ar  
    10     4    37 1   
    11     5    33 ar  
    12     5    38 1   
    13     6     7 1   
    14     6     8 2   
    15     6    28 1   
    16     7    29 2   
    17     8    31 1   
    18     8    39 1   
    19     9    25 ar  
    20     9    28 ar  
    21     9    40 1   
    22    10    27 ar  
    23    10    28 ar  
    24    10    41 1   
    25    11    14 ar  
    26    11    21 ar  
    27    11    23 ar  
    28    12    13 ar  
    29    12    18 1   
    30    12    19 ar  
    31    13    14 ar  
    32    13    42 1   
    33    15    22 ar  
    34    15    23 ar  
    35    15    43 1   
    36    16    20 1   
    37    16    44 1   
    38    16    45 1   
    39    16    46 1   
    40    17    18 1   
    41    17    49 1   
    42    17    50 1   
    43    17    51 1   
    44    19    20 1   
    45    19    21 ar  
    46    21    52 1   
    47    22    53 1   
    48    23    61 1   
    49    24    25 ar  
    50    24    27 ar  
    51    24    61 1   
    52    25    26 1   
    53    27    54 1   
    54    30    55 1   
    55    30    56 1   
    56    30    57 1   
    57    31    32 2   
    58    32    60 1   
    59    33    34 ar  
    60    33    60 1   
    61    34    35 ar  
    62    34    58 1   
    63    35    59 1   
    64    47    60 1   
    65    48    60 1   
@<TRIPOS>SUBSTRUCTURE
     1 MT3         1 TEMP              0 ****  ****    0 ROOT
