@<TRIPOS>MOLECULE
MT4
   60    64     1     0     0
SMALL
bcc


@<TRIPOS>ATOM
      1 N1          -5.7480     2.2030     1.4260 nb         1 MT4      -0.684000
      2 N3           4.6170    -0.3210     0.0130 nc         1 MT4      -0.706300
      3 C4          -3.5280     1.8270     0.5890 ca         1 MT4      -0.338300
      4 C5          -3.9210     0.6610    -0.0190 ca         1 MT4       0.184100
      5 C6          -7.0600    -1.3130    -0.3790 ca         1 MT4       0.116100
      6 C7          -7.9540    -0.4870     0.3800 ca         1 MT4       0.146100
      7 C8          -7.4940     0.6620     0.9620 ca         1 MT4      -0.267300
      8 C13         -1.0080    -0.2870     0.3890 ca         1 MT4       0.124900
      9 C15          1.0230     0.4500    -0.6610 ca         1 MT4       0.021200
     10 C17         -1.1030     0.6530    -1.8010 ca         1 MT4      -0.105000
     11 C20          5.2020     0.7600    -0.4320 cd         1 MT4       0.735800
     12 C21          3.2850    -0.3860    -0.0970 cc         1 MT4       0.195600
     13 C24          8.4850     0.4010     0.9760 ca         1 MT4      -0.113500
     14 C26          9.3030    -1.8190     1.2210 ca         1 MT4       0.128900
     15 C28          7.3320    -1.4310    -0.0710 ca         1 MT4      -0.113500
     16 O2          -9.2090    -0.9420     0.4510 os         1 MT4      -0.294900
     17 O1          -7.6230    -2.4100    -0.9020 os         1 MT4      -0.296900
     18 C11         -6.8050    -3.2760    -1.6640 c3         1 MT4       0.120700
     19 C9          -5.7490    -0.9520    -0.5180 ca         1 MT4      -0.172000
     20 C1          -5.2650     0.2370     0.0820 ca         1 MT4      -0.153300
     21 C2          -6.1410     1.0560     0.8280 ca         1 MT4       0.434600
     22 C3          -4.4950     2.5560     1.2990 ca         1 MT4       0.444200
     23 O3          -3.1030    -0.1320    -0.7480 os         1 MT4      -0.235200
     24 C12         -1.7540     0.0930    -0.7160 ca         1 MT4       0.047100
     25 C14          0.3570    -0.1070     0.4330 ca         1 MT4      -0.168000
     26 C16          0.2730     0.8250    -1.7770 ca         1 MT4      -0.111000
     27 C18          2.4860     0.5910    -0.6180 cd         1 MT4      -0.268400
     28 C19          3.1200     1.7880    -1.1050 c          1 MT4       0.727700
     29 O4           2.5400     2.7540    -1.5770 o          1 MT4      -0.615500
     30 N2           4.5220     1.7960    -1.0010 n          1 MT4      -0.406300
     31 C23          7.4310    -0.0680     0.1980 ca         1 MT4       0.136600
     32 C25          9.4340    -0.4710     1.4870 ca         1 MT4      -0.151000
     33 C27          8.2670    -2.3110     0.4510 ca         1 MT4      -0.151000
     34 H4          -2.5160     2.2020     0.5310 ha         1 MT4       0.153000
     35 H8          -8.1420     1.3030     1.5430 ha         1 MT4       0.157000
     36 H10         -9.8480    -0.1100     2.2500 h1         1 MT4       0.044033
     37 H10A       -10.2870     0.8090     0.7920 h1         1 MT4       0.044033
     38 H10B       -11.0880    -0.7340     1.1460 h1         1 MT4       0.044033
     39 H17         -1.6750     0.9460    -2.6710 ha         1 MT4       0.152000
     40 H21          2.8400    -1.3090     0.2620 h4         1 MT4       0.166000
     41 H22          6.0020     2.6460    -2.2280 h1         1 MT4       0.062033
     42 H22A         4.5440     3.6090    -2.0150 h1         1 MT4       0.062033
     43 H22B         5.7080     3.5160    -0.7000 h1         1 MT4       0.062033
     44 H24          8.5700     1.4590     1.1890 ha         1 MT4       0.147000
     45 H28          6.5340    -1.8150    -0.6860 ha         1 MT4       0.147000
     46 H11         -6.3900    -2.7720    -2.5410 h1         1 MT4       0.042033
     47 H11A        -5.9840    -3.6830    -1.0690 h1         1 MT4       0.042033
     48 H11B        -7.4420    -4.0930    -1.9940 h1         1 MT4       0.042033
     49 H9          -5.0690    -1.5690    -1.0870 ha         1 MT4       0.153000
     50 H3          -4.1960     3.4800     1.7810 h4         1 MT4       0.016100
     51 H14          0.8930    -0.3920     1.3300 ha         1 MT4       0.151000
     52 H16          0.7570     1.2440    -2.6460 ha         1 MT4       0.153000
     53 HN4          6.9480     1.7910    -0.5020 hn         1 MT4       0.450800
     54 H25         10.2540    -0.1020     2.0870 ha         1 MT4       0.155000
     55 H27          8.1910    -3.3710     0.2450 ha         1 MT4       0.155000
     56 F2          -1.6440    -0.8190     1.4390 f          1 MT4      -0.127900
     57 C10        -10.1470    -0.1940     1.2030 c3         1 MT4       0.119700
     58 N4           6.5450     0.8820    -0.3440 nu         1 MT4      -0.718600
     59 C22          5.2430     2.9550    -1.5110 c3         1 MT4       0.052300
     60 F1          10.2100    -2.6760     1.7180 f          1 MT4      -0.138900
@<TRIPOS>BOND
     1     1    21 ar  
     2     1    22 ar  
     3     2    11 2   
     4     2    12 1   
     5     3     4 ar  
     6     3    22 ar  
     7     3    34 1   
     8     4    20 ar  
     9     4    23 1   
    10     5     6 ar  
    11     5    17 1   
    12     5    19 ar  
    13     6     7 ar  
    14     6    16 1   
    15     7    21 ar  
    16     7    35 1   
    17     8    24 ar  
    18     8    25 ar  
    19     8    56 1   
    20     9    25 ar  
    21     9    26 ar  
    22     9    27 1   
    23    10    24 ar  
    24    10    26 ar  
    25    10    39 1   
    26    11    30 1   
    27    11    58 1   
    28    12    27 2   
    29    12    40 1   
    30    13    31 ar  
    31    13    32 ar  
    32    13    44 1   
    33    14    32 ar  
    34    14    33 ar  
    35    14    60 1   
    36    15    31 ar  
    37    15    33 ar  
    38    15    45 1   
    39    16    57 1   
    40    17    18 1   
    41    18    46 1   
    42    18    47 1   
    43    18    48 1   
    44    19    20 ar  
    45    19    49 1   
    46    20    21 ar  
    47    22    50 1   
    48    23    24 1   
    49    25    51 1   
    50    26    52 1   
    51    27    28 1   
    52    28    29 2   
    53    28    30 1   
    54    30    59 1   
    55    31    58 1   
    56    32    54 1   
    57    33    55 1   
    58    36    57 1   
    59    37    57 1   
    60    38    57 1   
    61    41    59 1   
    62    42    59 1   
    63    43    59 1   
    64    53    58 1   
@<TRIPOS>SUBSTRUCTURE
     1 MT4         1 TEMP              0 ****  ****    0 ROOT
