@<TRIPOS>MOLECULE
MT4
   60    64     1     0     0
SMALL
No Charge or Current Charge


@<TRIPOS>ATOM
      1 N1          -5.8510     2.1520     1.6230 nb         1 MT4      -0.684000
      2 N3           4.4710    -0.2000     0.3430 nc         1 MT4      -0.706300
      3 C4          -3.7340     2.1450     0.4650 ca         1 MT4      -0.255000
      4 C5          -4.0910     0.9770    -0.2240 ca         1 MT4       0.184100
      5 C6          -7.0430    -1.3220    -0.3960 ca         1 MT4       0.116100
      6 C7          -7.8970    -0.7000     0.5430 ca         1 MT4       0.146100
      7 C8          -7.4720     0.4700     1.2110 ca         1 MT4      -0.184000
      8 C13         -1.2090     0.0290     0.1630 ca         1 MT4       0.160000
      9 C15          0.9760     0.5980    -0.8000 ca         1 MT4       0.021200
     10 C17         -1.0940     0.9450    -2.0810 ca         1 MT4      -0.087000
     11 C20          5.1410     0.7160    -0.3160 cd         1 MT4       0.735800
     12 C21          3.1070    -0.2400     0.1560 cc         1 MT4       0.145600
     13 C24          8.6040     0.3390     1.0040 ca         1 MT4      -0.095500
     14 C26          9.3830    -1.9350     1.3750 ca         1 MT4       0.164000
     15 C28          7.2290    -1.5420     0.3160 ca         1 MT4      -0.095500
     16 O2          -9.1400    -1.2650     0.7820 os         1 MT4      -0.318100
     17 O1          -7.4830    -2.4690    -1.0370 os         1 MT4      -0.320100
     18 C11         -6.6850    -3.1720    -2.0060 c3         1 MT4       0.143900
     19 C9          -5.7720    -0.7640    -0.6560 ca         1 MT4      -0.154000
     20 C1          -5.3570     0.4060     0.0170 ca         1 MT4      -0.088000
     21 C2          -6.2110     1.0310     0.9580 ca         1 MT4       0.304000
     22 C3          -4.6390     2.6940     1.3780 ca         1 MT4       0.378900
     23 O3          -3.2300     0.4100    -1.1410 os         1 MT4      -0.235200
     24 C12         -1.8590     0.4680    -1.0090 ca         1 MT4       0.047100
     25 C14          0.1900     0.0930     0.2630 ca         1 MT4      -0.150000
     26 C16          0.3070     1.0120    -1.9770 ca         1 MT4      -0.093000
     27 C18          2.4620     0.6500    -0.6840 cd         1 MT4      -0.268400
     28 C19          3.2440     1.7380    -1.3360 c          1 MT4       0.585200
     29 O4           2.7290     2.6400    -1.9830 o          1 MT4      -0.540000
     30 N2           4.6250     1.6850    -1.1440 n          1 MT4      -0.339300
     31 C23          7.4120    -0.1460     0.4300 ca         1 MT4       0.275000
     32 C25          9.5860    -0.5510     1.4800 ca         1 MT4      -0.133000
     33 C27          8.2100    -2.4330     0.7910 ca         1 MT4      -0.133000
     34 H4          -2.7770     2.6300     0.3010 ha         1 MT4       0.135000
     35 H8          -8.1120     0.9630     1.9350 ha         1 MT4       0.139000
     36 H10         -9.6540    -0.6850     2.7300 h1         1 MT4       0.044033
     37 H10A       -10.3590     0.3140     1.4290 h1         1 MT4       0.044033
     38 H10B       -10.9920    -1.3140     1.7470 h1         1 MT4       0.044033
     39 H17         -1.5860     1.2630    -2.9970 ha         1 MT4       0.134000
     40 H21          2.5980    -1.0370     0.6930 h4         1 MT4       0.216000
     41 H22          6.4080     2.2020    -2.2120 h1         1 MT4       0.062033
     42 H22A         4.9790     3.1010    -2.7250 h1         1 MT4       0.062033
     43 H22B         5.7460     3.4990    -1.1660 h1         1 MT4       0.062033
     44 H24          8.7690     1.4100     1.0900 ha         1 MT4       0.129000
     45 H28          6.3350    -1.9420    -0.1520 ha         1 MT4       0.129000
     46 H11         -6.4490    -2.5250    -2.8600 h1         1 MT4       0.042033
     47 H11A        -5.7460    -3.5220    -1.5580 h1         1 MT4       0.042033
     48 H11B        -7.2280    -4.0470    -2.3820 h1         1 MT4       0.042033
     49 H9          -5.1020    -1.2300    -1.3740 ha         1 MT4       0.135000
     50 H3          -4.3910     3.6000     1.9300 h4         1 MT4       0.016100
     51 H14          0.6460    -0.2280     1.1950 ha         1 MT4       0.133000
     52 H16          0.8650     1.3540    -2.8430 ha         1 MT4       0.135000
     53 HN4          6.8220     1.7190    -0.1530 hn         1 MT4       0.506000
     54 H25         10.5000    -0.1690     1.9290 ha         1 MT4       0.137000
     55 H27          8.0630    -3.5070     0.7020 ha         1 MT4       0.137000
     56 F2          -1.9200    -0.4660     1.2030 f          1 MT4      -0.163000
     57 C10        -10.0780    -0.7070     1.7180 c3         1 MT4       0.142900
     58 N4           6.4710     0.7750    -0.0470 nu         1 MT4      -0.912200
     59 C22          5.4880     2.6790    -1.8490 c3         1 MT4       0.052300
     60 F1          10.3250    -2.7890     1.8290 f          1 MT4      -0.174000
@<TRIPOS>BOND
     1     1    21 ar  
     2     1    22 ar  
     3     2    11 2   
     4     2    12 1   
     5     3     4 ar  
     6     3    22 ar  
     7     3    34 1   
     8     4    20 ar  
     9     4    23 1   
    10     5     6 ar  
    11     5    17 1   
    12     5    19 ar  
    13     6     7 ar  
    14     6    16 1   
    15     7    21 ar  
    16     7    35 1   
    17     8    24 ar  
    18     8    25 ar  
    19     8    56 1   
    20     9    25 ar  
    21     9    26 ar  
    22     9    27 1   
    23    10    24 ar  
    24    10    26 ar  
    25    10    39 1   
    26    11    30 1   
    27    11    58 1   
    28    12    27 2   
    29    12    40 1   
    30    13    31 ar  
    31    13    32 ar  
    32    13    44 1   
    33    14    32 ar  
    34    14    33 ar  
    35    14    60 1   
    36    15    31 ar  
    37    15    33 ar  
    38    15    45 1   
    39    16    57 1   
    40    17    18 1   
    41    18    46 1   
    42    18    47 1   
    43    18    48 1   
    44    19    20 ar  
    45    19    49 1   
    46    20    21 ar  
    47    22    50 1   
    48    23    24 1   
    49    25    51 1   
    50    26    52 1   
    51    27    28 1   
    52    28    29 2   
    53    28    30 1   
    54    30    59 1   
    55    31    58 1   
    56    32    54 1   
    57    33    55 1   
    58    36    57 1   
    59    37    57 1   
    60    38    57 1   
    61    41    59 1   
    62    42    59 1   
    63    43    59 1   
    64    53    58 1   
@<TRIPOS>SUBSTRUCTURE
     1 MT4         1 TEMP              0 ****  ****    0 ROOT
