@<TRIPOS>MOLECULE
MT5
   52    53     1     0     0
SMALL
No Charge or Current Charge


@<TRIPOS>ATOM
      1 C1          10.1060    -1.1040     0.3750 c3         1 MT5      -0.090100
      2 C2           8.9610    -0.0720     0.3840 c3         1 MT5      -0.074400
      3 C3           7.5710    -0.7100     0.1700 c3         1 MT5      -0.075400
      4 C4           6.4240     0.3250     0.1800 c3         1 MT5      -0.074400
      5 C5           5.0330    -0.3130    -0.0350 c3         1 MT5      -0.073400
      6 C6           3.8860     0.7210    -0.0250 c3         1 MT5      -0.072400
      7 C7           2.4960     0.0830    -0.2390 c3         1 MT5      -0.095400
      8 C8           1.3570     1.1180    -0.2290 c3         1 MT5       0.059600
      9 N9           0.0660     0.4430    -0.4350 nu         1 MT5      -0.865000
     10 C10         -1.1430     0.9880    -0.5610 cz         1 MT5       0.903600
     11 N11         -1.3780     2.2520    -0.3540 nu         1 MT5      -0.455800
     12 C12         -2.7830     2.6420    -0.1190 c5         1 MT5       0.058600
     13 C13         -3.4600     1.2480    -0.4450 c5         1 MT5       0.053300
     14 N14         -2.2820     0.3360    -0.5280 nh         1 MT5      -0.338800
     15 C15         -2.4170    -1.1290    -0.5030 c6         1 MT5       0.287300
     16 O16         -2.7570    -1.5360    -1.8230 oh         1 MT5      -0.728000
     17 C17         -3.5500    -1.5860     0.4800 c6         1 MT5       0.094300
     18 O18         -3.8610    -2.9870     0.2710 oh         1 MT5      -0.711000
     19 C19         -4.8450    -0.7280     0.3120 c6         1 MT5       0.143300
     20 O20         -5.8650    -1.1920     1.2170 oh         1 MT5      -0.712000
     21 C21         -4.5290     0.7740     0.5720 c6         1 MT5       0.185300
     22 O22         -5.7320     1.5480     0.4720 oh         1 MT5      -0.707000
     23 H11         -0.5990     2.8290    -0.0670 hn         1 MT5       0.384000
     24 H121        -2.9580     2.9550     0.9210 h1         1 MT5       0.098200
     25 H122        -3.1330     3.4390    -0.7900 h1         1 MT5       0.098200
     26 H13         -3.9410     1.2960    -1.4320 h1         1 MT5       0.112700
     27 H21         -4.1100     0.8630     1.5860 h1         1 MT5       0.056700
     28 H17         -3.1800    -1.4310     1.5060 h1         1 MT5       0.071700
     29 H18         -3.2560    -3.5210     0.8440 ho         1 MT5       0.530000
     30 H19         -5.1940    -0.8320    -0.7270 h1         1 MT5       0.073700
     31 H20         -5.8000    -2.1790     1.1810 ho         1 MT5       0.541000
     32 H22         -6.4260     0.9690     0.8750 ho         1 MT5       0.550000
     33 H1          11.0700    -0.6060     0.5300 hc         1 MT5       0.036367
     34 H2           9.9690    -1.8430     1.1730 hc         1 MT5       0.036367
     35 H3          10.1440    -1.6330    -0.5850 hc         1 MT5       0.036367
     36 H9           0.1120    -0.5540    -0.6120 hn         1 MT5       0.376000
     37 H23          8.9720     0.4640     1.3410 hc         1 MT5       0.038700
     38 H24          9.1450     0.6720    -0.4010 hc         1 MT5       0.038700
     39 H31          7.5640    -1.2460    -0.7870 hc         1 MT5       0.039700
     40 H32          7.3910    -1.4540     0.9560 hc         1 MT5       0.039700
     41 H41          6.4300     0.8610     1.1370 hc         1 MT5       0.040700
     42 H42          6.6030     1.0690    -0.6060 hc         1 MT5       0.040700
     43 H51          5.0270    -0.8500    -0.9920 hc         1 MT5       0.043700
     44 H52          4.8540    -1.0580     0.7510 hc         1 MT5       0.043700
     45 H61          3.8930     1.2580     0.9320 hc         1 MT5       0.047700
     46 H62          4.0660     1.4660    -0.8110 hc         1 MT5       0.047700
     47 H71          2.4890    -0.4510    -1.1980 hc         1 MT5       0.059200
     48 H72          2.3160    -0.6600     0.5470 hc         1 MT5       0.059200
     49 H81          1.3610     1.6470     0.7360 h1         1 MT5       0.066700
     50 H82          1.5340     1.8570    -1.0240 h1         1 MT5       0.066700
     51 H15         -1.4680    -1.5960    -0.1980 h2         1 MT5       0.051700
     52 H16         -3.2260    -2.3970    -1.6830 ho         1 MT5       0.562000
@<TRIPOS>BOND
     1     1     2 1   
     2     1    33 1   
     3     1    34 1   
     4     1    35 1   
     5     2     3 1   
     6     2    37 1   
     7     2    38 1   
     8     3     4 1   
     9     3    39 1   
    10     3    40 1   
    11     4     5 1   
    12     4    41 1   
    13     4    42 1   
    14     5     6 1   
    15     5    43 1   
    16     5    44 1   
    17     6     7 1   
    18     6    45 1   
    19     6    46 1   
    20     7     8 1   
    21     7    47 1   
    22     7    48 1   
    23     8     9 1   
    24     8    49 1   
    25     8    50 1   
    26     9    10 2   
    27     9    36 1   
    28    10    11 1   
    29    10    14 1   
    30    11    12 1   
    31    11    23 1   
    32    12    13 1   
    33    12    24 1   
    34    12    25 1   
    35    13    14 1   
    36    13    21 1   
    37    13    26 1   
    38    14    15 1   
    39    15    16 1   
    40    15    17 1   
    41    15    51 1   
    42    16    52 1   
    43    17    18 1   
    44    17    19 1   
    45    17    28 1   
    46    18    29 1   
    47    19    20 1   
    48    19    21 1   
    49    19    30 1   
    50    20    31 1   
    51    21    22 1   
    52    21    27 1   
    53    22    32 1   
@<TRIPOS>SUBSTRUCTURE
     1 MT5         1 TEMP              0 ****  ****    0 ROOT
