@<TRIPOS>MOLECULE
MT5
   52    53     1     0     0
SMALL
bcc


@<TRIPOS>ATOM
      1 C1          10.1280    -0.8400     0.1050 c3         1 MT5      -0.090100
      2 C2           8.9480     0.1220     0.1320 c3         1 MT5      -0.074400
      3 C3           7.6030    -0.5930     0.0860 c3         1 MT5      -0.075400
      4 C4           6.4140     0.3600     0.1100 c3         1 MT5      -0.074400
      5 C5           5.0700    -0.3550     0.0610 c3         1 MT5      -0.073400
      6 C6           3.8880     0.6050     0.0860 c3         1 MT5      -0.072400
      7 C7           2.5450    -0.1110     0.0280 c3         1 MT5      -0.095400
      8 C8           1.3910     0.8750     0.0530 c3         1 MT5       0.030300
      9 N9           0.1170     0.1680    -0.0090 nu         1 MT5      -0.380100
     10 C10         -1.0440     0.7770    -0.0840 cz         1 MT5       0.498300
     11 N11         -1.1970     2.0920    -0.1700 nu         1 MT5      -0.376200
     12 C12         -2.6010     2.4620    -0.0720 c5         1 MT5       0.029300
     13 C13         -3.2830     1.1400    -0.4210 c5         1 MT5       0.024000
     14 N14         -2.2420     0.1680    -0.0890 nh         1 MT5      -0.280200
     15 C15         -2.4900    -1.2330    -0.2520 c6         1 MT5       0.234800
     16 O16         -2.5530    -1.5200    -1.6180 oh         1 MT5      -0.605800
     17 C17         -3.8000    -1.5720     0.4780 c6         1 MT5       0.071100
     18 O18         -4.2000    -2.8800     0.1460 oh         1 MT5      -0.588800
     19 C19         -4.9370    -0.6270     0.0900 c6         1 MT5       0.120100
     20 O20         -6.0920    -0.8880     0.8470 oh         1 MT5      -0.589800
     21 C21         -4.5400     0.8210     0.3610 c6         1 MT5       0.162100
     22 O22         -5.5180     1.7340    -0.0560 oh         1 MT5      -0.584800
     23 H11         -0.4550     2.7470     0.0230 hn         1 MT5       0.333700
     24 H121        -2.8410     2.7960     0.9410 h1         1 MT5       0.098200
     25 H122        -2.8450     3.2550    -0.7730 h1         1 MT5       0.098200
     26 H13         -3.4990     1.0960    -1.4950 h1         1 MT5       0.112700
     27 H21         -4.3220     0.9290     1.4350 h1         1 MT5       0.056700
     28 H17         -3.6120    -1.4690     1.5540 h1         1 MT5       0.071700
     29 H18         -3.7540    -3.5050     0.7270 ho         1 MT5       0.431000
     30 H19         -5.1370    -0.7350    -0.9860 h1         1 MT5       0.073700
     31 H20         -6.4530    -1.7390     0.5790 ho         1 MT5       0.442000
     32 H22         -6.3280     1.5580     0.4350 ho         1 MT5       0.451000
     33 H1          11.0810    -0.3110     0.1370 hc         1 MT5       0.036367
     34 H2          10.0990    -1.5210     0.9580 hc         1 MT5       0.036367
     35 H3          10.1180    -1.4480    -0.8020 hc         1 MT5       0.036367
     36 H9           0.1370    -0.8400     0.0070 hn         1 MT5       0.325700
     37 H23          8.9980     0.7400     1.0350 hc         1 MT5       0.038700
     38 H24          9.0190     0.8140    -0.7120 hc         1 MT5       0.038700
     39 H31          7.5530    -1.2120    -0.8170 hc         1 MT5       0.039700
     40 H32          7.5300    -1.2850     0.9320 hc         1 MT5       0.039700
     41 H41          6.4640     0.9810     1.0120 hc         1 MT5       0.040700
     42 H42          6.4880     1.0520    -0.7370 hc         1 MT5       0.040700
     43 H51          5.0180    -0.9710    -0.8430 hc         1 MT5       0.043700
     44 H52          4.9940    -1.0480     0.9060 hc         1 MT5       0.043700
     45 H61          3.9360     1.2180     0.9930 hc         1 MT5       0.047700
     46 H62          3.9670     1.2990    -0.7560 hc         1 MT5       0.047700
     47 H71          2.4880    -0.7160    -0.8820 hc         1 MT5       0.059200
     48 H72          2.4550    -0.7980     0.8750 hc         1 MT5       0.059200
     49 H81          1.4320     1.4760     0.9650 h1         1 MT5       0.066700
     50 H82          1.4680     1.5540    -0.8000 h1         1 MT5       0.066700
     51 H15         -1.6810    -1.7900     0.2390 h2         1 MT5       0.051700
     52 H16         -2.9840    -2.3780    -1.7200 ho         1 MT5       0.463000
@<TRIPOS>BOND
     1     1     2 1   
     2     1    33 1   
     3     1    34 1   
     4     1    35 1   
     5     2     3 1   
     6     2    37 1   
     7     2    38 1   
     8     3     4 1   
     9     3    39 1   
    10     3    40 1   
    11     4     5 1   
    12     4    41 1   
    13     4    42 1   
    14     5     6 1   
    15     5    43 1   
    16     5    44 1   
    17     6     7 1   
    18     6    45 1   
    19     6    46 1   
    20     7     8 1   
    21     7    47 1   
    22     7    48 1   
    23     8     9 1   
    24     8    49 1   
    25     8    50 1   
    26     9    10 2   
    27     9    36 1   
    28    10    11 1   
    29    10    14 1   
    30    11    12 1   
    31    11    23 1   
    32    12    13 1   
    33    12    24 1   
    34    12    25 1   
    35    13    14 1   
    36    13    21 1   
    37    13    26 1   
    38    14    15 1   
    39    15    16 1   
    40    15    17 1   
    41    15    51 1   
    42    16    52 1   
    43    17    18 1   
    44    17    19 1   
    45    17    28 1   
    46    18    29 1   
    47    19    20 1   
    48    19    21 1   
    49    19    30 1   
    50    20    31 1   
    51    21    22 1   
    52    21    27 1   
    53    22    32 1   
@<TRIPOS>SUBSTRUCTURE
     1 MT5         1 TEMP              0 ****  ****    0 ROOT
