@<TRIPOS>MOLECULE
MT6
   31    33     1     0     0
SMALL
No Charge or Current Charge


@<TRIPOS>ATOM
      1 C8          -1.5950    -0.1280     0.0030 ca         1 MT6      -0.037000
      2 C7          -0.5700     0.8460     0.0040 ca         1 MT6      -0.133500
      3 C5           1.9870     1.2260     0.0120 cc         1 MT6      -0.098000
      4 C6           0.8520     0.4470     0.0100 cd         1 MT6       0.176500
      5 N1           5.2330    -0.6240     0.0270 ns         1 MT6      -0.382100
      6 C2           4.7000    -1.9140     0.0290 cc         1 MT6      -0.021400
      7 C4           3.0660     0.3190     0.0180 cc         1 MT6      -0.260600
      8 O3          -3.7720    -2.0200     0.0000 o          1 MT6      -0.487000
      9 O4          -5.3080    -0.3250    -0.0100 os         1 MT6      -0.440100
     10 C15         -6.4020    -1.2610    -0.0110 c3         1 MT6       0.153900
     11 C9          -2.9580     0.2460    -0.0030 ca         1 MT6      -0.143600
     12 C10         -3.2900     1.6190    -0.0080 ca         1 MT6      -0.048000
     13 C13         -2.2780     2.5910    -0.0070 ca         1 MT6      -0.128000
     14 C11         -0.9270     2.2100    -0.0010 ca         1 MT6      -0.066000
     15 O2           1.1470    -0.9050     0.0140 os         1 MT6      -0.226000
     16 C12          2.5160    -0.9170     0.0190 cd         1 MT6       0.279800
     17 C1           3.3270    -2.0930     0.0250 cd         1 MT6      -0.377800
     18 C3           4.5110     0.5510     0.0220 c          1 MT6       0.599600
     19 O1           5.0420     1.6500     0.0210 o          1 MT6      -0.546000
     20 H1          -1.3350    -1.1840     0.0070 ha         1 MT6       0.148000
     21 H2           2.0580     2.3090     0.0090 ha         1 MT6       0.156000
     22 H3           6.2390    -0.5000     0.0300 hn         1 MT6       0.327500
     23 H4           5.4520    -2.7020     0.0330 h4         1 MT6       0.204000
     24 H5          -7.3610    -0.7280    -0.0160 h1         1 MT6       0.049700
     25 H6          -6.3670    -1.9040    -0.9000 h1         1 MT6       0.049700
     26 H7          -6.3730    -1.9000     0.8820 h1         1 MT6       0.049700
     27 H8          -4.3290     1.9430    -0.0120 ha         1 MT6       0.133000
     28 H9          -2.5420     3.6460    -0.0110 ha         1 MT6       0.121000
     29 H10         -0.1630     2.9830    -0.0000 ha         1 MT6       0.120000
     30 H11          2.8770    -3.0820     0.0260 ha         1 MT6       0.219000
     31 C14         -4.0280    -0.8230    -0.0040 c          1 MT6       0.605700
@<TRIPOS>BOND
     1     1     2 ar  
     2     1    11 ar  
     3     1    20 1   
     4     2     4 1   
     5     2    14 ar  
     6     3     4 2   
     7     3     7 1   
     8     3    21 1   
     9     4    15 1   
    10     5     6 1   
    11     5    18 1   
    12     5    22 1   
    13     6    17 2   
    14     6    23 1   
    15     7    16 2   
    16     7    18 1   
    17     8    31 2   
    18     9    10 1   
    19     9    31 1   
    20    10    24 1   
    21    10    25 1   
    22    10    26 1   
    23    11    12 ar  
    24    11    31 1   
    25    12    13 ar  
    26    12    27 1   
    27    13    14 ar  
    28    13    28 1   
    29    14    29 1   
    30    15    16 1   
    31    16    17 1   
    32    17    30 1   
    33    18    19 2   
@<TRIPOS>SUBSTRUCTURE
     1 MT6         1 TEMP              0 ****  ****    0 ROOT
