@<TRIPOS>MOLECULE
MT6
   31    33     1     0     0
SMALL
abcg2


@<TRIPOS>ATOM
      1 C8          -1.5770    -0.0720     0.0010 ca         1 MT6      -0.037000
      2 C7          -0.5840     0.9040     0.0070 ca         1 MT6      -0.133500
      3 C5           1.9610     1.2920     0.0020 cc         1 MT6      -0.098000
      4 C6           0.8240     0.5500     0.0110 cd         1 MT6       0.176500
      5 N1           5.1180    -0.7040     0.0200 ns         1 MT6      -0.382100
      6 C2           4.5360    -1.9330     0.0340 cc         1 MT6      -0.021400
      7 C4           3.0370     0.3580     0.0120 cc         1 MT6      -0.260600
      8 O3          -3.6330    -1.9860    -0.0020 o          1 MT6      -0.487000
      9 O4          -5.1690    -0.3710    -0.0150 os         1 MT6      -0.440100
     10 C15         -6.2160    -1.3430    -0.0180 c3         1 MT6       0.153900
     11 C9          -2.9220     0.2840    -0.0030 ca         1 MT6      -0.143600
     12 C10         -3.2880     1.6270    -0.0010 ca         1 MT6      -0.048000
     13 C13         -2.3010     2.6030     0.0050 ca         1 MT6      -0.128000
     14 C11         -0.9640     2.2500     0.0090 ca         1 MT6      -0.066000
     15 O2           1.1300    -0.7820     0.0240 os         1 MT6      -0.226000
     16 C12          2.4610    -0.8930     0.0250 cd         1 MT6       0.279800
     17 C1           3.1890    -2.0960     0.0370 cd         1 MT6      -0.377800
     18 C3           4.4630     0.5160     0.0080 c          1 MT6       0.599600
     19 O1           5.0780     1.5750    -0.0050 o          1 MT6      -0.546000
     20 H1          -1.3140    -1.1210    -0.0000 ha         1 MT6       0.148000
     21 H2           2.0310     2.3670    -0.0090 ha         1 MT6       0.156000
     22 H3           6.1290    -0.6690     0.0180 hn         1 MT6       0.327500
     23 H4           5.2200    -2.7680     0.0410 h4         1 MT6       0.204000
     24 H5          -7.1440    -0.7800    -0.0310 h1         1 MT6       0.049700
     25 H6          -6.1650    -1.9780    -0.9020 h1         1 MT6       0.049700
     26 H7          -6.1820    -1.9640     0.8760 h1         1 MT6       0.049700
     27 H8          -4.3280     1.9230    -0.0040 ha         1 MT6       0.133000
     28 H9          -2.5770     3.6490     0.0080 ha         1 MT6       0.121000
     29 H10         -0.2110     3.0280     0.0150 ha         1 MT6       0.120000
     30 H11          2.7340    -3.0750     0.0490 ha         1 MT6       0.219000
     31 C14         -3.9250    -0.8150    -0.0070 c          1 MT6       0.605700
@<TRIPOS>BOND
     1     1     2 ar  
     2     1    11 ar  
     3     1    20 1   
     4     2     4 1   
     5     2    14 ar  
     6     3     4 2   
     7     3     7 1   
     8     3    21 1   
     9     4    15 1   
    10     5     6 1   
    11     5    18 1   
    12     5    22 1   
    13     6    17 2   
    14     6    23 1   
    15     7    16 2   
    16     7    18 1   
    17     8    31 2   
    18     9    10 1   
    19     9    31 1   
    20    10    24 1   
    21    10    25 1   
    22    10    26 1   
    23    11    12 ar  
    24    11    31 1   
    25    12    13 ar  
    26    12    27 1   
    27    13    14 ar  
    28    13    28 1   
    29    14    29 1   
    30    15    16 1   
    31    16    17 1   
    32    17    30 1   
    33    18    19 2   
@<TRIPOS>SUBSTRUCTURE
     1 MT6         1 TEMP              0 ****  ****    0 ROOT
