@<TRIPOS>MOLECULE
MT8
   31    33     1     0     0
SMALL
No Charge or Current Charge


@<TRIPOS>ATOM
      1 C1          -2.0790     0.7010     0.0690 c6         1 MT8       0.234300
      2 O1          -2.6340     0.8900    -1.2320 oh         1 MT8      -0.651000
      3 C2          -1.3130     1.9810     0.4700 c6         1 MT8      -0.125400
      4 C3           0.0160     2.1120    -0.2910 c6         1 MT8       0.096000
      5 C6          -3.2710     0.5030     1.0520 c3         1 MT8      -0.117100
      6 N7           0.8820     0.9400    -0.0330 n          1 MT8      -0.221400
      7 C8           2.2820     1.1140     0.0370 c          1 MT8       0.571000
      8 O8           2.8290     2.1820    -0.2140 o          1 MT8      -0.548000
      9 C9           3.1100    -0.0970     0.4650 c6         1 MT8      -0.159400
     10 C10          2.6190    -1.3860    -0.2120 c6         1 MT8      -0.024100
     11 C11          1.1010    -1.5220    -0.1100 ca         1 MT8      -0.126300
     12 C12          0.5340    -2.8080    -0.0990 ca         1 MT8      -0.073000
     13 C13         -0.8560    -2.9620    -0.0400 ca         1 MT8      -0.137000
     14 C14         -1.6860    -1.8350     0.0190 ca         1 MT8      -0.061000
     15 C15          0.2710    -0.3730    -0.0850 ca         1 MT8       0.001000
     16 C20         -1.1400    -0.5300     0.0260 ca         1 MT8      -0.103300
     17 HO1         -3.2980     1.6060    -1.1490 ho         1 MT8       0.439000
     18 H2          -1.9300     2.8740     0.3000 hc         1 MT8       0.056200
     19 H2A         -1.0960     1.9580     1.5470 hc         1 MT8       0.056200
     20 H3          -0.1720     2.1910    -1.3710 h1         1 MT8       0.071700
     21 H3A          0.5160     3.0370     0.0290 h1         1 MT8       0.071700
     22 H6          -3.9790    -0.2580     0.7040 hc         1 MT8       0.044367
     23 H6A         -2.9160     0.2010     2.0440 hc         1 MT8       0.044367
     24 H6B         -3.8430     1.4310     1.1780 hc         1 MT8       0.044367
     25 H9           4.1830     0.0890     0.3270 hc         1 MT8       0.075700
     26 H9A          2.9110    -0.2330     1.5360 hc         1 MT8       0.075700
     27 H10          2.9100    -1.3790    -1.2720 hc         1 MT8       0.058700
     28 H10A         3.1170    -2.2540     0.2420 hc         1 MT8       0.058700
     29 H12          1.1700    -3.6900    -0.1430 ha         1 MT8       0.114000
     30 H13         -1.2920    -3.9590    -0.0420 ha         1 MT8       0.118000
     31 H14         -2.7610    -1.9880     0.0480 ha         1 MT8       0.117000
@<TRIPOS>BOND
     1     1     2 1   
     2     1     3 1   
     3     1     5 1   
     4     1    16 1   
     5     2    17 1   
     6     3     4 1   
     7     3    18 1   
     8     3    19 1   
     9     4     6 1   
    10     4    20 1   
    11     4    21 1   
    12     5    22 1   
    13     5    23 1   
    14     5    24 1   
    15     6     7 1   
    16     6    15 1   
    17     7     8 2   
    18     7     9 1   
    19     9    10 1   
    20     9    25 1   
    21     9    26 1   
    22    10    11 1   
    23    10    27 1   
    24    10    28 1   
    25    11    12 ar  
    26    11    15 ar  
    27    12    13 ar  
    28    12    29 1   
    29    13    14 ar  
    30    13    30 1   
    31    14    16 ar  
    32    14    31 1   
    33    15    16 ar  
@<TRIPOS>SUBSTRUCTURE
     1 MT8         1 TEMP              0 ****  ****    0 ROOT
