@<TRIPOS>MOLECULE
MT8
   31    33     1     0     0
SMALL
abcg2


@<TRIPOS>ATOM
      1 C1          -2.0490     0.6940     0.0910 c6         1 MT8       0.234300
      2 O1          -2.6600     0.7830    -1.1890 oh         1 MT8      -0.651000
      3 C2          -1.2390     1.9570     0.3820 c6         1 MT8      -0.125400
      4 C3           0.0070     2.0120    -0.4710 c6         1 MT8       0.096000
      5 C6          -3.1060     0.5230     1.1810 c3         1 MT8      -0.117100
      6 N7           0.8690     0.8910    -0.1280 n          1 MT8      -0.221400
      7 C8           2.1720     1.1060     0.2170 c          1 MT8       0.571000
      8 O8           2.6680     2.2200     0.2110 o          1 MT8      -0.548000
      9 C9           2.9510    -0.1200     0.6150 c6         1 MT8      -0.159400
     10 C10          2.5620    -1.3130    -0.2400 c6         1 MT8      -0.024100
     11 C11          1.0820    -1.5180    -0.1570 ca         1 MT8      -0.126300
     12 C12          0.5040    -2.7750    -0.1630 ca         1 MT8      -0.073000
     13 C13         -0.8760    -2.9180    -0.1150 ca         1 MT8      -0.137000
     14 C14         -1.6720    -1.7910    -0.0370 ca         1 MT8      -0.061000
     15 C15          0.2660    -0.3810    -0.0820 ca         1 MT8       0.001000
     16 C20         -1.1250    -0.5090     0.0020 ca         1 MT8      -0.103300
     17 HO1         -3.2990     1.5060    -1.1640 ho         1 MT8       0.439000
     18 H2          -1.8610     2.8380     0.2030 hc         1 MT8       0.056200
     19 H2A         -0.9540     1.9840     1.4380 hc         1 MT8       0.056200
     20 H3          -0.2500     1.9590    -1.5320 h1         1 MT8       0.071700
     21 H3A          0.5550     2.9340    -0.3080 h1         1 MT8       0.071700
     22 H6          -3.7690    -0.3200     0.9890 hc         1 MT8       0.044367
     23 H6A         -2.6440     0.3770     2.1570 hc         1 MT8       0.044367
     24 H6B         -3.7230     1.4220     1.2400 hc         1 MT8       0.044367
     25 H9           4.0130     0.1060     0.5350 hc         1 MT8       0.075700
     26 H9A          2.7410    -0.3310     1.6690 hc         1 MT8       0.075700
     27 H10          2.8570    -1.1310    -1.2790 hc         1 MT8       0.058700
     28 H10A         3.0930    -2.2080     0.0850 hc         1 MT8       0.058700
     29 H12          1.1440    -3.6480    -0.2170 ha         1 MT8       0.114000
     30 H13         -1.3250    -3.9030    -0.1340 ha         1 MT8       0.118000
     31 H14         -2.7470    -1.9100     0.0040 ha         1 MT8       0.117000
@<TRIPOS>BOND
     1     1     2 1   
     2     1     3 1   
     3     1     5 1   
     4     1    16 1   
     5     2    17 1   
     6     3     4 1   
     7     3    18 1   
     8     3    19 1   
     9     4     6 1   
    10     4    20 1   
    11     4    21 1   
    12     5    22 1   
    13     5    23 1   
    14     5    24 1   
    15     6     7 1   
    16     6    15 1   
    17     7     8 2   
    18     7     9 1   
    19     9    10 1   
    20     9    25 1   
    21     9    26 1   
    22    10    11 1   
    23    10    27 1   
    24    10    28 1   
    25    11    12 ar  
    26    11    15 ar  
    27    12    13 ar  
    28    12    29 1   
    29    13    14 ar  
    30    13    30 1   
    31    14    16 ar  
    32    14    31 1   
    33    15    16 ar  
@<TRIPOS>SUBSTRUCTURE
     1 MT8         1 TEMP              0 ****  ****    0 ROOT
