@<TRIPOS>MOLECULE
MT9
   76    77     1     0     0
SMALL
No Charge or Current Charge


@<TRIPOS>ATOM
      1 C4          50.4490   122.9850   116.3790 c3         1 MT9       0.211200
      2 C3          51.1790   124.3800   116.5000 c3         1 MT9       0.142300
      3 O3          52.6020   124.1460   116.6920 os         1 MT9      -0.451100
      4 C13         53.5160   124.9040   115.9930 c          1 MT9       0.596100
      5 O2          53.2200   125.7780   115.1880 o          1 MT9      -0.489000
      6 C5          51.1040   122.1980   115.2490 c2         1 MT9      -0.152200
      7 C12         54.9670   124.4970   116.2970 c3         1 MT9      -0.113700
      8 C11         55.7410   123.9920   115.0210 c3         1 MT9       0.186300
      9 C10         55.2840   122.6010   114.4220 c3         1 MT9      -0.083700
     10 C9          53.9310   122.6960   113.6420 c3         1 MT9      -0.064400
     11 C8          53.2280   121.4010   113.1120 c3         1 MT9      -0.149700
     12 C7          52.6880   120.4770   114.2450 c          1 MT9       0.572300
     13 C6          51.9260   121.1200   115.3580 ce         1 MT9      -0.276200
     14 O1          53.0850   119.3270   114.3840 o          1 MT9      -0.523100
     15 O7          49.0870   123.1930   115.9940 oh         1 MT9      -0.657000
     16 C25         50.4310   122.1940   117.7130 c3         1 MT9      -0.117100
     17 C2          50.6770   125.2980   117.6550 c3         1 MT9      -0.086400
     18 C24         54.0720   120.6540   112.0470 c3         1 MT9      -0.079100
     19 C23         55.3680   121.4690   115.4790 c3         1 MT9      -0.091100
     20 O4          57.1390   123.9330   115.4050 os         1 MT9      -0.463000
     21 C14         55.6600   125.6890   117.0160 c3         1 MT9      -0.084100
     22 C16         59.4880   124.4680   114.8680 c6         1 MT9       0.146300
     23 C15         58.1510   123.8220   114.3780 c6         1 MT9       0.356300
     24 O5          58.3680   122.4460   114.0500 os         1 MT9      -0.477000
     25 C19         59.2270   122.2830   112.9170 c6         1 MT9       0.177300
     26 C18         60.6330   122.8250   113.2570 c6         1 MT9      -0.119400
     27 C17         60.6150   124.3100   113.7580 c6         1 MT9       0.195500
     28 O6          59.2190   125.8460   115.2400 oh         1 MT9      -0.721000
     29 N1          62.0150   124.7110   114.1960 n3         1 MT9      -0.715600
     30 C20         59.2340   120.7760   112.5690 c3         1 MT9      -0.087100
     31 C21         63.0470   124.5640   113.1340 c3         1 MT9       0.150600
     32 C22         62.1170   126.0520   114.8240 c3         1 MT9       0.150600
     33 C1          51.2700   126.7240   117.6510 c3         1 MT9      -0.089100
     34 H3          50.9920   124.8990   115.5500 h1         1 MT9       0.084700
     35 H5          50.9270   122.6590   114.2760 ha         1 MT9       0.186000
     36 H12         54.9290   123.6810   117.0250 hc         1 MT9       0.090700
     37 H11         55.6220   124.7550   114.2390 h1         1 MT9       0.051700
     38 H10         55.9980   122.3320   113.6400 hc         1 MT9       0.064700
     39 H9          53.2030   123.2350   114.2360 hc         1 MT9       0.045200
     40 H9A         54.1040   123.3510   112.7780 hc         1 MT9       0.045200
     41 H8          52.3310   121.8040   112.6280 hc         1 MT9       0.063700
     42 H6          52.0650   120.6200   116.3130 ha         1 MT9       0.196000
     43 HO7         48.6010   123.4840   116.7940 ho         1 MT9       0.446000
     44 H25         49.9900   121.2000   117.5700 hc         1 MT9       0.051700
     45 H25A        51.4470   122.0660   118.1060 hc         1 MT9       0.051700
     46 H25B        49.8400   122.7100   118.4790 hc         1 MT9       0.051700
     47 H2          49.5860   125.3860   117.5940 hc         1 MT9       0.048200
     48 H2A         50.9030   124.8330   118.6210 hc         1 MT9       0.048200
     49 H24         54.3610   121.3330   111.2360 hc         1 MT9       0.042367
     50 H24A        54.9870   120.2400   112.4870 hc         1 MT9       0.042367
     51 H24B        53.4980   119.8290   111.6080 hc         1 MT9       0.042367
     52 H23         55.3520   120.4850   115.0000 hc         1 MT9       0.044700
     53 H23A        56.3090   121.5270   116.0390 hc         1 MT9       0.044700
     54 H23B        54.5450   121.5270   116.1990 hc         1 MT9       0.044700
     55 H14         56.6330   125.3960   117.4300 hc         1 MT9       0.049367
     56 H14A        55.8130   126.5280   116.3260 hc         1 MT9       0.049367
     57 H14B        55.0440   126.0440   117.8510 hc         1 MT9       0.049367
     58 H16         59.8150   123.9030   115.7530 h1         1 MT9       0.067700
     59 H15         57.8080   124.3620   113.4820 h2         1 MT9       0.031700
     60 H19         58.8070   122.8380   112.0650 h1         1 MT9       0.031700
     61 H18         61.0940   122.1860   114.0240 hc         1 MT9       0.061700
     62 H18A        61.2480   122.7280   112.3540 hc         1 MT9       0.061700
     63 H17         60.3140   124.9390   112.9060 h1         1 MT9       0.032700
     64 HO6         58.3930   125.8120   115.7750 ho         1 MT9       0.513000
     65 H20         58.2220   120.4220   112.3410 hc         1 MT9       0.048033
     66 H20A        59.8600   120.5790   111.6900 hc         1 MT9       0.048033
     67 H20B        59.6230   120.1750   113.4000 hc         1 MT9       0.048033
     68 H21         62.7710   125.1370   112.2380 h1         1 MT9       0.033867
     69 H21A        64.0220   124.9280   113.4830 h1         1 MT9       0.033867
     70 H21B        63.1910   123.5150   112.8490 h1         1 MT9       0.033867
     71 H22         63.1660   126.3210   115.0060 h1         1 MT9       0.033867
     72 H22A        61.6760   126.8250   114.1800 h1         1 MT9       0.033867
     73 H22B        61.6200   126.0720   115.8010 h1         1 MT9       0.033867
     74 H1          51.0920   127.2180   116.6880 hc         1 MT9       0.040367
     75 H1A         50.8040   127.3310   118.4370 hc         1 MT9       0.040367
     76 H1B         52.3500   126.7030   117.8400 hc         1 MT9       0.040367
@<TRIPOS>BOND
     1     1     2 1   
     2     1     6 1   
     3     1    15 1   
     4     1    16 1   
     5     2     3 1   
     6     2    17 1   
     7     2    34 1   
     8     3     4 1   
     9     4     5 2   
    10     4     7 1   
    11     6    13 2   
    12     6    35 1   
    13     7     8 1   
    14     7    21 1   
    15     7    36 1   
    16     8     9 1   
    17     8    20 1   
    18     8    37 1   
    19     9    10 1   
    20     9    19 1   
    21     9    38 1   
    22    10    11 1   
    23    10    39 1   
    24    10    40 1   
    25    11    12 1   
    26    11    18 1   
    27    11    41 1   
    28    12    13 1   
    29    12    14 2   
    30    13    42 1   
    31    15    43 1   
    32    16    44 1   
    33    16    45 1   
    34    16    46 1   
    35    17    33 1   
    36    17    47 1   
    37    17    48 1   
    38    18    49 1   
    39    18    50 1   
    40    18    51 1   
    41    19    52 1   
    42    19    53 1   
    43    19    54 1   
    44    20    23 1   
    45    21    55 1   
    46    21    56 1   
    47    21    57 1   
    48    22    23 1   
    49    22    27 1   
    50    22    28 1   
    51    22    58 1   
    52    23    24 1   
    53    23    59 1   
    54    24    25 1   
    55    25    26 1   
    56    25    30 1   
    57    25    60 1   
    58    26    27 1   
    59    26    61 1   
    60    26    62 1   
    61    27    29 1   
    62    27    63 1   
    63    28    64 1   
    64    29    31 1   
    65    29    32 1   
    66    30    65 1   
    67    30    66 1   
    68    30    67 1   
    69    31    68 1   
    70    31    69 1   
    71    31    70 1   
    72    32    71 1   
    73    32    72 1   
    74    32    73 1   
    75    33    74 1   
    76    33    75 1   
    77    33    76 1   
@<TRIPOS>SUBSTRUCTURE
     1 MT9         1 TEMP              0 ****  ****    0 ROOT
