@<TRIPOS>MOLECULE
MT9
   76    77     1     0     0
SMALL
abcg2


@<TRIPOS>ATOM
      1 C4          50.5300   123.1060   116.2930 c3         1 MT9       0.211200
      2 C3          51.3220   124.4070   116.6350 c3         1 MT9       0.142300
      3 O3          52.7290   124.0560   116.7840 os         1 MT9      -0.451100
      4 C13         53.6490   124.7640   116.1080 c          1 MT9       0.596100
      5 O2          53.3870   125.6980   115.3830 o          1 MT9      -0.489000
      6 C5          51.1850   122.5020   115.0790 c2         1 MT9      -0.152200
      7 C12         55.0620   124.2980   116.4020 c3         1 MT9      -0.113700
      8 C11         55.7960   123.8700   115.1130 c3         1 MT9       0.186300
      9 C10         55.2700   122.5880   114.4300 c3         1 MT9      -0.083700
     10 C9          54.0070   122.9110   113.6160 c3         1 MT9      -0.064400
     11 C8          53.2740   121.7390   112.9290 c3         1 MT9      -0.149700
     12 C7          52.5760   120.7850   113.8910 c          1 MT9       0.572300
     13 C6          51.8010   121.3250   115.0350 ce         1 MT9      -0.276200
     14 O1          52.6600   119.5720   113.7620 o          1 MT9      -0.523100
     15 O7          49.2230   123.5140   115.8490 oh         1 MT9      -0.657000
     16 C25         50.4230   122.1500   117.4720 c3         1 MT9      -0.117100
     17 C2          50.8660   125.1210   117.8980 c3         1 MT9      -0.086400
     18 C24         54.1550   120.9960   111.9300 c3         1 MT9      -0.079100
     19 C23         55.1430   121.4290   115.4190 c3         1 MT9      -0.091100
     20 O4          57.1750   123.7130   115.4990 os         1 MT9      -0.463000
     21 C14         55.7770   125.4600   117.1110 c3         1 MT9      -0.084100
     22 C16         59.3360   124.4270   114.8280 c6         1 MT9       0.146300
     23 C15         58.0990   123.6070   114.4580 c6         1 MT9       0.356300
     24 O5          58.4270   122.2430   114.2900 os         1 MT9      -0.477000
     25 C19         59.3670   122.0490   113.2210 c6         1 MT9       0.177300
     26 C18         60.6580   122.8010   113.5180 c6         1 MT9      -0.119400
     27 C17         60.4110   124.2970   113.7420 c6         1 MT9       0.195500
     28 O6          58.9450   125.7850   115.0070 oh         1 MT9      -0.721000
     29 N1          61.6310   125.0490   114.1020 n3         1 MT9      -0.715600
     30 C20         59.5740   120.5570   113.0720 c3         1 MT9      -0.087100
     31 C21         62.8820   124.4880   113.6000 c3         1 MT9       0.150600
     32 C22         61.5410   126.4470   113.6800 c3         1 MT9       0.150600
     33 C1          51.5190   126.4880   118.0860 c3         1 MT9      -0.089100
     34 H3          51.2320   125.0690   115.7750 h1         1 MT9       0.084700
     35 H5          51.1660   123.1500   114.2090 ha         1 MT9       0.186000
     36 H12         55.0090   123.4500   117.0820 hc         1 MT9       0.090700
     37 H11         55.7410   124.6990   114.3990 h1         1 MT9       0.051700
     38 H10         56.0440   122.3090   113.7140 hc         1 MT9       0.064700
     39 H9          53.2880   123.4350   114.2310 hc         1 MT9       0.045200
     40 H9A         54.2920   123.6150   112.8310 hc         1 MT9       0.045200
     41 H8          52.4490   122.2080   112.3740 hc         1 MT9       0.063700
     42 H6          51.7800   120.6570   115.8880 ha         1 MT9       0.196000
     43 HO7         48.6970   123.7640   116.6190 ho         1 MT9       0.446000
     44 H25         49.9220   121.2320   117.1680 hc         1 MT9       0.051700
     45 H25A        51.4080   121.9000   117.8670 hc         1 MT9       0.051700
     46 H25B        49.8420   122.6050   118.2750 hc         1 MT9       0.051700
     47 H2          49.7820   125.2460   117.8460 hc         1 MT9       0.048200
     48 H2A         51.0720   124.4870   118.7620 hc         1 MT9       0.048200
     49 H24         54.6040   121.7070   111.2350 hc         1 MT9       0.042367
     50 H24A        54.9600   120.4570   112.4320 hc         1 MT9       0.042367
     51 H24B        53.5790   120.2700   111.3560 hc         1 MT9       0.042367
     52 H23         55.0120   120.4830   114.8960 hc         1 MT9       0.044700
     53 H23A        56.0520   121.3470   116.0150 hc         1 MT9       0.044700
     54 H23B        54.3030   121.5540   116.1030 hc         1 MT9       0.044700
     55 H14         56.7500   125.1380   117.4760 hc         1 MT9       0.049367
     56 H14A        55.9140   126.3010   116.4280 hc         1 MT9       0.049367
     57 H14B        55.1880   125.8050   117.9630 hc         1 MT9       0.049367
     58 H16         59.7440   124.0250   115.7630 h1         1 MT9       0.067700
     59 H15         57.6690   124.0020   113.5260 h2         1 MT9       0.031700
     60 H19         58.9200   122.4510   112.3010 h1         1 MT9       0.031700
     61 H18         61.1210   122.3600   114.4060 hc         1 MT9       0.061700
     62 H18A        61.3400   122.6540   112.6800 hc         1 MT9       0.061700
     63 H17         59.9940   124.7060   112.8060 h1         1 MT9       0.032700
     64 HO6         58.2250   125.7830   115.6520 ho         1 MT9       0.513000
     65 H20         58.6260   120.0580   112.8630 hc         1 MT9       0.048033
     66 H20A        60.2610   120.3530   112.2490 hc         1 MT9       0.048033
     67 H20B        59.9960   120.1380   113.9880 hc         1 MT9       0.048033
     68 H21         62.9290   124.4490   112.4990 h1         1 MT9       0.033867
     69 H21A        63.7000   125.1240   113.9420 h1         1 MT9       0.033867
     70 H21B        63.0550   123.4870   113.9880 h1         1 MT9       0.033867
     71 H22         62.4070   126.9940   114.0570 h1         1 MT9       0.033867
     72 H22A        61.5320   126.5410   112.5800 h1         1 MT9       0.033867
     73 H22B        60.6390   126.9040   114.0720 h1         1 MT9       0.033867
     74 H1          51.3130   127.1430   117.2370 hc         1 MT9       0.040367
     75 H1A         51.1360   126.9690   118.9870 hc         1 MT9       0.040367
     76 H1B         52.6020   126.4030   118.1910 hc         1 MT9       0.040367
@<TRIPOS>BOND
     1     1     2 1   
     2     1     6 1   
     3     1    15 1   
     4     1    16 1   
     5     2     3 1   
     6     2    17 1   
     7     2    34 1   
     8     3     4 1   
     9     4     5 2   
    10     4     7 1   
    11     6    13 2   
    12     6    35 1   
    13     7     8 1   
    14     7    21 1   
    15     7    36 1   
    16     8     9 1   
    17     8    20 1   
    18     8    37 1   
    19     9    10 1   
    20     9    19 1   
    21     9    38 1   
    22    10    11 1   
    23    10    39 1   
    24    10    40 1   
    25    11    12 1   
    26    11    18 1   
    27    11    41 1   
    28    12    13 1   
    29    12    14 2   
    30    13    42 1   
    31    15    43 1   
    32    16    44 1   
    33    16    45 1   
    34    16    46 1   
    35    17    33 1   
    36    17    47 1   
    37    17    48 1   
    38    18    49 1   
    39    18    50 1   
    40    18    51 1   
    41    19    52 1   
    42    19    53 1   
    43    19    54 1   
    44    20    23 1   
    45    21    55 1   
    46    21    56 1   
    47    21    57 1   
    48    22    23 1   
    49    22    27 1   
    50    22    28 1   
    51    22    58 1   
    52    23    24 1   
    53    23    59 1   
    54    24    25 1   
    55    25    26 1   
    56    25    30 1   
    57    25    60 1   
    58    26    27 1   
    59    26    61 1   
    60    26    62 1   
    61    27    29 1   
    62    27    63 1   
    63    28    64 1   
    64    29    31 1   
    65    29    32 1   
    66    30    65 1   
    67    30    66 1   
    68    30    67 1   
    69    31    68 1   
    70    31    69 1   
    71    31    70 1   
    72    32    71 1   
    73    32    72 1   
    74    32    73 1   
    75    33    74 1   
    76    33    75 1   
    77    33    76 1   
@<TRIPOS>SUBSTRUCTURE
     1 MT9         1 TEMP              0 ****  ****    0 ROOT
