@<TRIPOS>MOLECULE
MTA
   35    37     1     0     0
SMALL
bcc


@<TRIPOS>ATOM
      1 CS           2.6750    -0.5420     4.4720 c3         1 MTA      -0.022000
      2 S5           1.7070     0.5430     3.4000 ss         1 MTA      -0.284200
      3 C5           0.1810    -0.4320     3.3110 c3         1 MTA      -0.027300
      4 C4          -0.9290     0.3890     2.6750 c5         1 MTA       0.156100
      5 O4          -0.4910     1.0000     1.4580 os         1 MTA      -0.385600
      6 C2          -1.7370    -0.8990     0.8750 c5         1 MTA       0.056100
      7 O2          -2.8080    -1.2400     0.0480 oh         1 MTA      -0.566800
      8 C3          -2.1290    -0.4670     2.2920 c5         1 MTA       0.088100
      9 O3          -3.2730     0.3450     2.2700 oh         1 MTA      -0.579800
     10 C1          -1.0580     0.3690     0.3480 c5         1 MTA       0.266800
     11 N9          -0.0270     0.1090    -0.6290 na         1 MTA      -0.264000
     12 C8           1.2340    -0.3740    -0.3980 cc         1 MTA       0.410700
     13 N7           1.9290    -0.5350    -1.4850 nd         1 MTA      -0.557100
     14 C7           1.0870    -0.1410    -2.4920 ca         1 MTA      -0.232200
     15 C6           1.2340    -0.0680    -3.8890 ca         1 MTA       0.779200
     16 N6           2.3520    -0.4340    -4.5170 nv         1 MTA      -0.957500
     17 N1           0.2000     0.3890    -4.6050 nb         1 MTA      -0.830000
     18 C10         -0.9140     0.7530    -3.9750 ca         1 MTA       0.707900
     19 N3          -1.1720     0.7250    -2.6790 nb         1 MTA      -0.741000
     20 C9          -0.1350     0.2680    -1.9800 ca         1 MTA       0.465800
     21 HCS1         2.8590    -1.5050     3.9980 h1         1 MTA       0.061700
     22 HCS2         3.6310    -0.0550     4.6540 h1         1 MTA       0.061700
     23 HCS3         2.1740    -0.6980     5.4270 h1         1 MTA       0.061700
     24 H5'1         0.3760    -1.3600     2.7670 h1         1 MTA       0.061200
     25 H5'2        -0.1290    -0.7050     4.3210 h1         1 MTA       0.061200
     26 H4          -1.2160     1.1880     3.3620 h1         1 MTA       0.108700
     27 H2          -1.0020    -1.7110     0.9350 h1         1 MTA       0.054700
     28 HO2         -3.0370    -2.1630     0.2010 ho         1 MTA       0.415000
     29 H3          -2.2460    -1.3250     2.9660 h1         1 MTA       0.055700
     30 H3T         -3.9200    -0.0690     1.6860 ho         1 MTA       0.426000
     31 H1          -1.7920     1.0130    -0.1490 h2         1 MTA       0.124700
     32 H8           1.5970    -0.5620     0.6020 h5         1 MTA       0.076800
     33 H61          2.4200    -0.3650    -5.5180 hn         1 MTA       0.450800
     34 H62          3.1430    -0.7860    -4.0080 hn         1 MTA       0.450800
     35 H7          -1.7110     1.1190    -4.6130 h5         1 MTA       0.046100
@<TRIPOS>BOND
     1     1     2 1   
     2     1    21 1   
     3     1    22 1   
     4     1    23 1   
     5     2     3 1   
     6     3     4 1   
     7     3    24 1   
     8     3    25 1   
     9     4     5 1   
    10     4     8 1   
    11     4    26 1   
    12     5    10 1   
    13     6     7 1   
    14     6     8 1   
    15     6    10 1   
    16     6    27 1   
    17     7    28 1   
    18     8     9 1   
    19     8    29 1   
    20     9    30 1   
    21    10    11 1   
    22    10    31 1   
    23    11    12 1   
    24    11    20 1   
    25    12    13 2   
    26    12    32 1   
    27    13    14 1   
    28    14    15 ar  
    29    14    20 ar  
    30    15    16 1   
    31    15    17 ar  
    32    16    33 1   
    33    16    34 1   
    34    17    18 ar  
    35    18    19 ar  
    36    18    35 1   
    37    19    20 ar  
@<TRIPOS>SUBSTRUCTURE
     1 MTA         1 TEMP              0 ****  ****    0 ROOT
