@<TRIPOS>MOLECULE
MTA
   35    37     1     0     0
SMALL
No Charge or Current Charge


@<TRIPOS>ATOM
      1 CS           2.9870    -0.0400     3.6470 c3         1 MTA       0.025900
      2 S5           1.6290     1.0890     3.0980 ss         1 MTA      -0.380000
      3 C5           0.2130    -0.1060     3.0690 c3         1 MTA       0.020600
      4 C4          -1.1160     0.5400     2.5850 c5         1 MTA       0.179300
      5 O4          -0.9830     0.9880     1.2140 os         1 MTA      -0.432000
      6 C2          -2.0270    -1.2080     1.2230 c5         1 MTA       0.079300
      7 O2          -3.2290    -1.8100     0.6960 oh         1 MTA      -0.689000
      8 C3          -2.3320    -0.4400     2.5410 c5         1 MTA       0.111300
      9 O3          -3.5970     0.2250     2.4350 oh         1 MTA      -0.702000
     10 C1          -1.4300    -0.0590     0.3190 c5         1 MTA       0.319300
     11 N9          -0.3490    -0.3950    -0.6110 na         1 MTA      -0.293300
     12 C8           0.5960    -1.4180    -0.4640 cc         1 MTA       0.410700
     13 N7           1.4380    -1.4680    -1.5140 nd         1 MTA      -0.557100
     14 C7           0.9880    -0.4300    -2.3350 ca         1 MTA      -0.101600
     15 C6           1.4810     0.0070    -3.5820 ca         1 MTA       0.450900
     16 N6           2.5450    -0.5750    -4.1950 nv         1 MTA      -1.067900
     17 N1           0.9180     1.0400    -4.2290 nb         1 MTA      -0.304000
     18 C10         -0.1420     1.6200    -3.6140 ca         1 MTA       0.181900
     19 N3          -0.6830     1.2650    -2.4240 nb         1 MTA      -0.215000
     20 C9          -0.0900     0.2280    -1.8000 ca         1 MTA       0.137500
     21 HCS1         3.1120    -0.8540     2.9220 h1         1 MTA       0.061700
     22 HCS2         3.9270     0.5210     3.7230 h1         1 MTA       0.061700
     23 HCS3         2.7430    -0.4660     4.6290 h1         1 MTA       0.061700
     24 H5'1         0.4820    -0.9500     2.4250 h1         1 MTA       0.061200
     25 H5'2         0.0660    -0.4930     4.0860 h1         1 MTA       0.061200
     26 H4          -1.3290     1.4040     3.2290 h1         1 MTA       0.108700
     27 H2          -1.2790    -1.9860     1.4230 h1         1 MTA       0.054700
     28 HO2         -2.9630    -2.4780     0.0180 ho         1 MTA       0.514000
     29 H3          -2.3310    -1.1180     3.4060 h1         1 MTA       0.055700
     30 H3T         -4.0960    -0.3450     1.7970 ho         1 MTA       0.525000
     31 H1          -2.2370     0.3480    -0.3050 h2         1 MTA       0.124700
     32 H8           0.6260    -2.0720     0.3990 h5         1 MTA       0.076800
     33 H61          3.0280    -0.0450    -4.9170 hn         1 MTA       0.506000
     34 H62          3.1150    -1.2020    -3.6320 hn         1 MTA       0.506000
     35 H7          -0.6080     2.4580    -4.1310 h5         1 MTA       0.046100
@<TRIPOS>BOND
     1     1     2 1   
     2     1    21 1   
     3     1    22 1   
     4     1    23 1   
     5     2     3 1   
     6     3     4 1   
     7     3    24 1   
     8     3    25 1   
     9     4     5 1   
    10     4     8 1   
    11     4    26 1   
    12     5    10 1   
    13     6     7 1   
    14     6     8 1   
    15     6    10 1   
    16     6    27 1   
    17     7    28 1   
    18     8     9 1   
    19     8    29 1   
    20     9    30 1   
    21    10    11 1   
    22    10    31 1   
    23    11    12 1   
    24    11    20 1   
    25    12    13 2   
    26    12    32 1   
    27    13    14 1   
    28    14    15 ar  
    29    14    20 ar  
    30    15    16 1   
    31    15    17 ar  
    32    16    33 1   
    33    16    34 1   
    34    17    18 ar  
    35    18    19 ar  
    36    18    35 1   
    37    19    20 ar  
@<TRIPOS>SUBSTRUCTURE
     1 MTA         1 TEMP              0 ****  ****    0 ROOT
