@<TRIPOS>MOLECULE
MTB
   39    40     1     0     0
SMALL
No Charge or Current Charge


@<TRIPOS>ATOM
      1 C1           0.9150     0.3000    -2.5270 ca         1 MTB       0.078400
      2 C2           0.0960     0.0820    -3.6610 ca         1 MTB      -0.068600
      3 C3           0.7000    -0.1010    -4.9250 ca         1 MTB      -0.106000
      4 C4           2.0970    -0.0540    -5.0650 ca         1 MTB      -0.118000
      5 C5           2.9050     0.1740    -3.9410 ca         1 MTB      -0.156000
      6 C6           2.3160     0.3490    -2.6780 ca         1 MTB      -0.106000
      7 C7          -0.3560    -0.4440     0.7160 ca         1 MTB       0.074400
      8 C8           0.4860    -0.3320     1.8360 ca         1 MTB      -0.056000
      9 C9          -0.0330    -0.1730     3.1520 ca         1 MTB      -0.117300
     10 C10         -1.4550    -0.1360     3.2820 ca         1 MTB       0.133100
     11 C11         -2.2900    -0.2510     2.1590 ca         1 MTB      -0.220000
     12 C12         -1.7460    -0.4060     0.8780 ca         1 MTB      -0.039000
     13 C           -1.4090     0.0330    -3.5460 c          1 MTB       0.718600
     14 CT3          0.9310    -0.0470     4.3840 c3         1 MTB       0.023300
     15 CHV          2.4360    -0.1160     3.9860 c3         1 MTB      -0.080767
     16 CHW          0.6850    -1.2130     5.3850 c3         1 MTB      -0.080767
     17 CHX          0.7240     1.3200     5.0960 c3         1 MTB      -0.080767
     18 N1           0.3640     0.4590    -1.2390 ne         1 MTB      -0.123400
     19 N2           0.2000    -0.6060    -0.5740 nf         1 MTB      -0.250400
     20 O           -1.9860    -0.9460    -4.0020 o          1 MTB      -0.710000
     21 OXT         -1.9960     1.0090    -3.0980 o          1 MTB      -0.710000
     22 O4          -2.0720     0.0120     4.4890 oh         1 MTB      -0.547100
     23 H3           0.0790    -0.2760    -5.8020 ha         1 MTB       0.124000
     24 H4           2.5510    -0.1930    -6.0430 ha         1 MTB       0.088000
     25 H5           3.9870     0.2110    -4.0470 ha         1 MTB       0.088000
     26 H6           2.9480     0.5170    -1.8090 ha         1 MTB       0.107000
     27 H2           1.5520    -0.3720     1.6450 ha         1 MTB       0.121000
     28 H7          -3.3710    -0.2220     2.2720 ha         1 MTB       0.107000
     29 H8          -2.3980    -0.4940     0.0100 ha         1 MTB       0.166000
     30 H11          3.0810    -0.0250     4.8690 hc         1 MTB       0.031478
     31 H12          2.6780    -1.0730     3.5070 hc         1 MTB       0.031478
     32 H13          2.7050     0.7000     3.3040 hc         1 MTB       0.031478
     33 H21          0.7720    -2.1810     4.8770 hc         1 MTB       0.031478
     34 H22          1.4210    -1.1920     6.1980 hc         1 MTB       0.031478
     35 H23         -0.3040    -1.1630     5.8500 hc         1 MTB       0.031478
     36 H31          0.8380     2.1460     4.3830 hc         1 MTB       0.031478
     37 H32         -0.2640     1.4070     5.5570 hc         1 MTB       0.031478
     38 H33          1.4620     1.4610     5.8950 hc         1 MTB       0.031478
     39 HO4         -3.0400     0.0100     4.3410 ho         1 MTB       0.457000
@<TRIPOS>BOND
     1     1     2 ar  
     2     1     6 ar  
     3     1    18 1   
     4     2     3 ar  
     5     2    13 1   
     6     3     4 ar  
     7     3    23 1   
     8     4     5 ar  
     9     4    24 1   
    10     5     6 ar  
    11     5    25 1   
    12     6    26 1   
    13     7     8 ar  
    14     7    12 ar  
    15     7    19 1   
    16     8     9 ar  
    17     8    27 1   
    18     9    10 ar  
    19     9    14 1   
    20    10    11 ar  
    21    10    22 1   
    22    11    12 ar  
    23    11    28 1   
    24    12    29 1   
    25    13    20 1   
    26    13    21 1   
    27    14    15 1   
    28    14    16 1   
    29    14    17 1   
    30    15    30 1   
    31    15    31 1   
    32    15    32 1   
    33    16    33 1   
    34    16    34 1   
    35    16    35 1   
    36    17    36 1   
    37    17    37 1   
    38    17    38 1   
    39    18    19 2   
    40    22    39 1   
@<TRIPOS>SUBSTRUCTURE
     1 MTB         1 TEMP              0 ****  ****    0 ROOT
