@<TRIPOS>MOLECULE
MTB
   39    40     1     0     0
SMALL
abcg2


@<TRIPOS>ATOM
      1 C1           0.6970     0.0630    -2.6470 ca         1 MTB       0.078400
      2 C2          -0.0230    -0.1170    -3.8330 ca         1 MTB      -0.068600
      3 C3           0.6680    -0.0640    -5.0410 ca         1 MTB      -0.106000
      4 C4           2.0410     0.1330    -5.0760 ca         1 MTB      -0.118000
      5 C5           2.7450     0.3160    -3.8910 ca         1 MTB      -0.156000
      6 C6           2.0740     0.2900    -2.6820 ca         1 MTB      -0.106000
      7 C7          -0.1250    -0.0970     0.7700 ca         1 MTB       0.074400
      8 C8           0.6220    -0.1510     1.9440 ca         1 MTB      -0.056000
      9 C9           0.0600    -0.0790     3.2130 ca         1 MTB      -0.117300
     10 C10         -1.3430     0.0290     3.2620 ca         1 MTB       0.133100
     11 C11         -2.1050     0.0580     2.0900 ca         1 MTB      -0.220000
     12 C12         -1.5120     0.0020     0.8480 ca         1 MTB      -0.039000
     13 C           -1.5160    -0.4150    -3.8430 c          1 MTB       0.718600
     14 CT3          0.9310    -0.1180     4.4700 c3         1 MTB       0.023300
     15 CHV          2.4180    -0.2420     4.1200 c3         1 MTB      -0.080767
     16 CHW          0.5740    -1.3330     5.3400 c3         1 MTB      -0.080767
     17 CHX          0.7680     1.1800     5.2770 c3         1 MTB      -0.080767
     18 N1          -0.0380     0.1120    -1.4470 ne         1 MTB      -0.123400
     19 N2           0.6020    -0.1750    -0.4270 nf         1 MTB      -0.250400
     20 O           -1.9160    -1.2690    -3.0330 o          1 MTB      -0.710000
     21 OXT         -2.1870     0.2030    -4.6910 o          1 MTB      -0.710000
     22 O4          -1.9530     0.0940     4.4580 oh         1 MTB      -0.547100
     23 H3           0.1220    -0.1930    -5.9670 ha         1 MTB       0.124000
     24 H4           2.5600     0.1600    -6.0260 ha         1 MTB       0.088000
     25 H5           3.8130     0.4910    -3.9120 ha         1 MTB       0.088000
     26 H6           2.6080     0.4670    -1.7580 ha         1 MTB       0.107000
     27 H2           1.6930    -0.2430     1.8290 ha         1 MTB       0.121000
     28 H7          -3.1860     0.1220     2.1640 ha         1 MTB       0.107000
     29 H8          -2.1140     0.0150    -0.0500 ha         1 MTB       0.166000
     30 H11          2.9990    -0.2480     5.0430 hc         1 MTB       0.031478
     31 H12          2.6450    -1.1680     3.5880 hc         1 MTB       0.031478
     32 H13          2.7780     0.5940     3.5180 hc         1 MTB       0.031478
     33 H21          0.6730    -2.2600     4.7720 hc         1 MTB       0.031478
     34 H22          1.2580    -1.3910     6.1890 hc         1 MTB       0.031478
     35 H23         -0.4380    -1.2870     5.7360 hc         1 MTB       0.031478
     36 H31          1.0240     2.0500     4.6690 hc         1 MTB       0.031478
     37 H32         -0.2420     1.3190     5.6570 hc         1 MTB       0.031478
     38 H33          1.4440     1.1670     6.1350 hc         1 MTB       0.031478
     39 HO4         -2.9080     0.1590     4.3450 ho         1 MTB       0.457000
@<TRIPOS>BOND
     1     1     2 ar  
     2     1     6 ar  
     3     1    18 1   
     4     2     3 ar  
     5     2    13 1   
     6     3     4 ar  
     7     3    23 1   
     8     4     5 ar  
     9     4    24 1   
    10     5     6 ar  
    11     5    25 1   
    12     6    26 1   
    13     7     8 ar  
    14     7    12 ar  
    15     7    19 1   
    16     8     9 ar  
    17     8    27 1   
    18     9    10 ar  
    19     9    14 1   
    20    10    11 ar  
    21    10    22 1   
    22    11    12 ar  
    23    11    28 1   
    24    12    29 1   
    25    13    20 1   
    26    13    21 1   
    27    14    15 1   
    28    14    16 1   
    29    14    17 1   
    30    15    30 1   
    31    15    31 1   
    32    15    32 1   
    33    16    33 1   
    34    16    34 1   
    35    16    35 1   
    36    17    36 1   
    37    17    37 1   
    38    17    38 1   
    39    18    19 2   
    40    22    39 1   
@<TRIPOS>SUBSTRUCTURE
     1 MTB         1 TEMP              0 ****  ****    0 ROOT
