@<TRIPOS>MOLECULE
MTF
    9     8     1     0     0
SMALL
No Charge or Current Charge


@<TRIPOS>ATOM
      1 C           -0.8420    -0.0050    -0.2380 cs         1 MTF       0.359200
      2 S            0.2910     0.0120    -1.4750 s          1 MTF      -0.564400
      3 N           -0.5160     0.0090     1.0940 ns         1 MTF      -0.393900
      4 CM           0.8410     0.0400     1.6470 c3         1 MTF       0.070300
      5 H           -1.9200    -0.0280    -0.4080 h5         1 MTF       0.041200
      6 HN          -1.2910    -0.0040     1.7500 hn         1 MTF       0.313500
      7 HM1          0.7920     0.0450     2.7430 h1         1 MTF       0.058033
      8 HM2          1.3970    -0.8460     1.3140 h1         1 MTF       0.058033
      9 HM3          1.3600     0.9460     1.3050 h1         1 MTF       0.058033
@<TRIPOS>BOND
     1     1     2 2   
     2     1     3 1   
     3     1     5 1   
     4     3     4 1   
     5     3     6 1   
     6     4     7 1   
     7     4     8 1   
     8     4     9 1   
@<TRIPOS>SUBSTRUCTURE
     1 MTF         1 TEMP              0 ****  ****    0 ROOT
