@<TRIPOS>MOLECULE
MTF
    9     8     1     0     0
SMALL
bcc


@<TRIPOS>ATOM
      1 C           -0.8080    -0.0070    -0.1920 cs         1 MTF       0.426200
      2 S            0.2860     0.0000    -1.4350 s          1 MTF      -0.564400
      3 N           -0.5200     0.0100     1.0900 ns         1 MTF      -0.460900
      4 CM           0.8210     0.0410     1.6220 c3         1 MTF       0.070300
      5 H           -1.8780    -0.0260    -0.3870 h5         1 MTF       0.041200
      6 HN          -1.2870     0.0070     1.7440 hn         1 MTF       0.313500
      7 HM1          0.7630     0.0300     2.7060 h1         1 MTF       0.058033
      8 HM2          1.3910    -0.8250     1.2840 h1         1 MTF       0.058033
      9 HM3          1.3460     0.9400     1.2990 h1         1 MTF       0.058033
@<TRIPOS>BOND
     1     1     2 2   
     2     1     3 1   
     3     1     5 1   
     4     3     4 1   
     5     3     6 1   
     6     4     7 1   
     7     4     8 1   
     8     4     9 1   
@<TRIPOS>SUBSTRUCTURE
     1 MTF         1 TEMP              0 ****  ****    0 ROOT
