@<TRIPOS>MOLECULE
MTG
   11    10     1     0     0
SMALL
abcg2


@<TRIPOS>ATOM
      1 O5          -1.4640     1.1950     0.0150 o          1 MTG      -0.719500
      2 O6          -2.3970    -0.8350    -0.0110 o          1 MTG      -0.719500
      3 C1          -1.4330    -0.0480     0.0030 c          1 MTG       0.734000
      4 C2          -0.0420    -0.7090     0.0070 c3         1 MTG      -0.067400
      5 S3           1.2600     0.5440     0.0210 ss         1 MTG      -0.405000
      6 C4           2.7080    -0.5420     0.0470 c3         1 MTG       0.010900
      7 H21          0.0670    -1.3500    -0.8730 h1         1 MTG       0.033700
      8 H22          0.0580    -1.3580     0.8820 h1         1 MTG       0.033700
      9 H41          3.5980     0.0840     0.0660 h1         1 MTG       0.033367
     10 H42          2.7130    -1.1760     0.9330 h1         1 MTG       0.033367
     11 H43          2.7500    -1.1750    -0.8400 h1         1 MTG       0.033367
@<TRIPOS>BOND
     1     1     3 1   
     2     2     3 1   
     3     3     4 1   
     4     4     5 1   
     5     4     7 1   
     6     4     8 1   
     7     5     6 1   
     8     6     9 1   
     9     6    10 1   
    10     6    11 1   
@<TRIPOS>SUBSTRUCTURE
     1 MTG         1 TEMP              0 ****  ****    0 ROOT
