@<TRIPOS>MOLECULE
MTG
   11    10     1     0     0
SMALL
No Charge or Current Charge


@<TRIPOS>ATOM
      1 O5          -1.9490     0.6210     0.8650 o          1 MTG      -0.719500
      2 O6          -2.0850    -0.3410    -1.0600 o          1 MTG      -0.719500
      3 C1          -1.4810    -0.0710    -0.0300 c          1 MTG       0.734000
      4 C2          -0.0550    -0.6490     0.1580 c3         1 MTG      -0.067400
      5 S3           1.3010     0.4540    -0.4900 ss         1 MTG      -0.405000
      6 C4           2.7730    -0.5800    -0.0780 c3         1 MTG       0.010900
      7 H21         -0.0020    -1.6170    -0.3570 h1         1 MTG       0.033700
      8 H22          0.1100    -0.8250     1.2280 h1         1 MTG       0.033700
      9 H41          3.6880    -0.0660    -0.3990 h1         1 MTG       0.033367
     10 H42          2.8160    -0.7490     1.0060 h1         1 MTG       0.033367
     11 H43          2.7030    -1.5470    -0.5920 h1         1 MTG       0.033367
@<TRIPOS>BOND
     1     1     3 1   
     2     2     3 1   
     3     3     4 1   
     4     4     5 1   
     5     4     7 1   
     6     4     8 1   
     7     5     6 1   
     8     6     9 1   
     9     6    10 1   
    10     6    11 1   
@<TRIPOS>SUBSTRUCTURE
     1 MTG         1 TEMP              0 ****  ****    0 ROOT
