@<TRIPOS>MOLECULE
MTH
   36    38     1     0     0
SMALL
No Charge or Current Charge


@<TRIPOS>ATOM
      1 CS           1.5970    -2.7130    -0.7050 c3         1 MTH       0.023900
      2 S5           2.0960    -1.2160    -1.6680 ss         1 MTH      -0.376000
      3 C5           2.5780    -0.0870    -0.2790 c3         1 MTH       0.022600
      4 C4           2.3130     1.4140    -0.5960 c5         1 MTH       0.179300
      5 O4           0.9080     1.6570    -0.8270 os         1 MTH      -0.432000
      6 C2           1.3660     2.2170     1.4770 c5         1 MTH       0.078300
      7 O2           1.0750     3.4560     2.1660 oh         1 MTH      -0.691000
      8 C3           2.6290     2.3940     0.5720 c5         1 MTH       0.110300
      9 O3           2.7130     3.7600     0.1540 oh         1 MTH      -0.703000
     10 C1           0.2380     1.7630     0.4550 c5         1 MTH       0.314300
     11 N9          -0.5020     0.5130     0.7460 na         1 MTH      -0.195400
     12 C8          -0.5250    -0.1580     1.9990 cc         1 MTH      -0.167100
     13 C7          -1.3120    -1.2750     1.7930 cd         1 MTH      -0.210200
     14 C9          -1.7930    -1.2940     0.4380 ca         1 MTH      -0.260800
     15 C6          -2.6130    -2.1780    -0.2660 ca         1 MTH       0.434900
     16 N6          -3.1450    -3.2930     0.2910 nv         1 MTH      -1.078900
     17 N1          -2.9230    -1.9440    -1.5490 nb         1 MTH      -0.303000
     18 C11         -2.3970    -0.8170    -2.0890 ca         1 MTH       0.178900
     19 N3          -1.5970     0.0850    -1.4700 nb         1 MTH      -0.227000
     20 C10         -1.2900    -0.1780    -0.1810 ca         1 MTH       0.166500
     21 HCS1         2.4500    -3.0820    -0.1210 h1         1 MTH       0.060033
     22 HCS2         0.7760    -2.4600    -0.0240 h1         1 MTH       0.060033
     23 HCS3         1.2630    -3.5010    -1.3920 h1         1 MTH       0.060033
     24 H5'1         2.0320    -0.3830     0.6250 h1         1 MTH       0.059200
     25 H5'2         3.6470    -0.2260    -0.0750 h1         1 MTH       0.059200
     26 H4'1         2.8790     1.6780    -1.5000 h1         1 MTH       0.105700
     27 H2'1         1.5780     1.4250     2.2060 h1         1 MTH       0.053700
     28 HO21         0.4730     3.2480     2.9220 ho         1 MTH       0.512000
     29 H3'1         3.5460     2.1030     1.1040 h1         1 MTH       0.053700
     30 HO31         2.1240     4.2080     0.8170 ho         1 MTH       0.524000
     31 H1'1        -0.5350     2.5390     0.3850 h2         1 MTH       0.125700
     32 HC81        -0.0160     0.1870     2.8940 h4         1 MTH       0.222000
     33 HC71        -1.5360    -2.0170     2.5580 ha         1 MTH       0.199000
     34 HN61        -3.1480    -3.3600     1.3050 hn         1 MTH       0.496000
     35 HN62        -3.9100    -3.7520    -0.1950 hn         1 MTH       0.496000
     36 HC21        -2.6440    -0.6140    -3.1300 h5         1 MTH       0.043100
@<TRIPOS>BOND
     1     1     2 1   
     2     1    21 1   
     3     1    22 1   
     4     1    23 1   
     5     2     3 1   
     6     3     4 1   
     7     3    24 1   
     8     3    25 1   
     9     4     5 1   
    10     4     8 1   
    11     4    26 1   
    12     5    10 1   
    13     6     7 1   
    14     6     8 1   
    15     6    10 1   
    16     6    27 1   
    17     7    28 1   
    18     8     9 1   
    19     8    29 1   
    20     9    30 1   
    21    10    11 1   
    22    10    31 1   
    23    11    12 1   
    24    11    20 1   
    25    12    13 2   
    26    12    32 1   
    27    13    14 1   
    28    13    33 1   
    29    14    15 ar  
    30    14    20 ar  
    31    15    16 1   
    32    15    17 ar  
    33    16    34 1   
    34    16    35 1   
    35    17    18 ar  
    36    18    19 ar  
    37    18    36 1   
    38    19    20 ar  
@<TRIPOS>SUBSTRUCTURE
     1 MTH         1 TEMP              0 ****  ****    0 ROOT
