@<TRIPOS>MOLECULE
MTH
   36    38     1     0     0
SMALL
bcc


@<TRIPOS>ATOM
      1 CS           4.5830    -2.5820     0.4190 c3         1 MTH      -0.024000
      2 S5           3.4420    -1.6370    -0.6140 ss         1 MTH      -0.280200
      3 C5           3.3190    -0.1390     0.3990 c3         1 MTH      -0.025300
      4 C4           2.6160     0.9640    -0.3760 c5         1 MTH       0.156100
      5 O4           1.3980     0.4960    -0.9570 os         1 MTH      -0.385600
      6 C2           0.8340     1.6750     0.9850 c5         1 MTH       0.055100
      7 O2          -0.0150     2.7050     1.3950 oh         1 MTH      -0.568800
      8 C3           2.2200     2.1290     0.5220 c5         1 MTH       0.087100
      9 O3           2.1330     3.2940    -0.2550 oh         1 MTH      -0.580800
     10 C1           0.2850     1.0230    -0.2870 c5         1 MTH       0.261800
     11 N9          -0.6690    -0.0250    -0.0390 na         1 MTH      -0.166100
     12 C8          -0.4020    -1.2470     0.5430 cc         1 MTH      -0.117100
     13 C7          -1.5540    -1.9600     0.6700 cd         1 MTH      -0.160200
     14 C9          -2.5940    -1.1390     0.1370 ca         1 MTH      -0.391400
     15 C6          -3.9860    -1.2280    -0.0560 ca         1 MTH       0.763200
     16 N6          -4.6930    -2.3090     0.2980 nv         1 MTH      -0.968500
     17 N1          -4.6330    -0.2080    -0.6260 nb         1 MTH      -0.829000
     18 C11         -3.9330     0.8630    -0.9950 ca         1 MTH       0.704900
     19 N3          -2.6390     1.0760    -0.8660 nb         1 MTH      -0.753000
     20 C10         -2.0030     0.0510    -0.2950 ca         1 MTH       0.494800
     21 HCS1         5.5240    -2.0500     0.5560 h1         1 MTH       0.060033
     22 HCS2         4.1460    -2.7990     1.3920 h1         1 MTH       0.060033
     23 HCS3         4.7850    -3.5230    -0.0890 h1         1 MTH       0.060033
     24 H5'1         2.8070    -0.3760     1.3360 h1         1 MTH       0.059200
     25 H5'2         4.3240     0.2040     0.6540 h1         1 MTH       0.059200
     26 H4'1         3.2700     1.2970    -1.1870 h1         1 MTH       0.105700
     27 H2'1         0.9480     0.9150     1.7690 h1         1 MTH       0.053700
     28 HO21         0.1690     2.9100     2.3170 ho         1 MTH       0.413000
     29 H3'1         2.9190     2.2480     1.3610 h1         1 MTH       0.053700
     30 HO31         1.5280     3.9010     0.1880 ho         1 MTH       0.425000
     31 H1'1        -0.2330     1.7690    -0.8980 h2         1 MTH       0.125700
     32 HC81         0.6060    -1.5330     0.7970 h4         1 MTH       0.172000
     33 HC71        -1.6350    -2.9530     1.0820 ha         1 MTH       0.149000
     34 HN61        -4.2760    -3.0650     0.8090 hn         1 MTH       0.440800
     35 HN62        -5.6940    -2.3040     0.2070 hn         1 MTH       0.440800
     36 HC21        -4.5060     1.6590    -1.4580 h5         1 MTH       0.043100
@<TRIPOS>BOND
     1     1     2 1   
     2     1    21 1   
     3     1    22 1   
     4     1    23 1   
     5     2     3 1   
     6     3     4 1   
     7     3    24 1   
     8     3    25 1   
     9     4     5 1   
    10     4     8 1   
    11     4    26 1   
    12     5    10 1   
    13     6     7 1   
    14     6     8 1   
    15     6    10 1   
    16     6    27 1   
    17     7    28 1   
    18     8     9 1   
    19     8    29 1   
    20     9    30 1   
    21    10    11 1   
    22    10    31 1   
    23    11    12 1   
    24    11    20 1   
    25    12    13 2   
    26    12    32 1   
    27    13    14 1   
    28    13    33 1   
    29    14    15 ar  
    30    14    20 ar  
    31    15    16 1   
    32    15    17 ar  
    33    16    34 1   
    34    16    35 1   
    35    17    18 ar  
    36    18    19 ar  
    37    18    36 1   
    38    19    20 ar  
@<TRIPOS>SUBSTRUCTURE
     1 MTH         1 TEMP              0 ****  ****    0 ROOT
