@<TRIPOS>MOLECULE
MTI
   37    39     1     0     0
SMALL
bcc


@<TRIPOS>ATOM
      1 CS           2.4520    -2.7760    -1.7230 c3         1 MTI       0.007000
      2 S5           2.7040    -0.9870    -1.7420 ss         1 MTI      -0.334200
      3 C5           2.3560    -0.5340    -0.0100 c3         1 MTI      -0.018300
      4 C4           2.2560     0.9770     0.0940 c5         1 MTI       0.158500
      5 N4           1.1180     1.4720    -0.7240 ny         1 MTI      -0.777000
      6 C2           0.8970     2.6080     1.2980 c5         1 MTI       0.102100
      7 O2           1.4980     3.7670     0.7930 oh         1 MTI      -0.596800
      8 C3           1.9530     1.4950     1.5160 c5         1 MTI       0.099100
      9 O3           3.1390     1.9560     2.0940 oh         1 MTI      -0.574800
     10 C1           0.0520     2.0080     0.1840 c5         1 MTI       0.252800
     11 C9          -0.8480     0.9020     0.6480 cc         1 MTI      -0.236300
     12 C8          -1.5530     0.7850     1.8320 cd         1 MTI      -0.067300
     13 N7          -2.3300    -0.3290     1.7880 na         1 MTI      -0.094100
     14 C7          -2.1210    -0.9770     0.6090 cd         1 MTI      -0.206900
     15 C6          -2.6440    -2.2130     0.0860 c          1 MTI       0.740100
     16 O6          -3.4580    -2.9680     0.5900 o          1 MTI      -0.579500
     17 N1          -2.0540    -2.4600    -1.0720 ns         1 MTI      -0.464400
     18 C11         -1.1390    -1.7130    -1.7280 cd         1 MTI       0.519800
     19 N3          -0.6900    -0.5930    -1.3120 nc         1 MTI      -0.653100
     20 C10         -1.2010    -0.2260    -0.1100 cc         1 MTI       0.100400
     21 HS1          1.4510    -3.0260    -1.3790 h1         1 MTI       0.074367
     22 HS2          2.5730    -3.1310    -2.7530 h1         1 MTI       0.074367
     23 HS3          3.1880    -3.2680    -1.0940 h1         1 MTI       0.074367
     24 H5'1         1.4240    -1.0040     0.3180 h1         1 MTI       0.093200
     25 H5'2         3.1440    -0.8800     0.6580 h1         1 MTI       0.093200
     26 H4           3.1610     1.4580    -0.2820 hx         1 MTI       0.129700
     27 H4'1         1.4240     2.2320    -1.3360 hn         1 MTI       0.477800
     28 H4'2         0.7520     0.7530    -1.3630 hn         1 MTI       0.477800
     29 H1           0.3100     2.8080     2.2020 h1         1 MTI       0.089700
     30 H2           2.2650     3.9740     1.3410 ho         1 MTI       0.452000
     31 H3           1.5040     0.6920     2.1090 h1         1 MTI       0.072700
     32 H7           3.0710     1.8830     3.0500 ho         1 MTI       0.441000
     33 H6          -0.4920     2.7510    -0.4050 hx         1 MTI       0.127700
     34 H8          -1.5750     1.4330     2.6920 h4         1 MTI       0.187000
     35 HN7         -2.9570    -0.6220     2.5220 hn         1 MTI       0.341700
     36 HN1         -2.3230    -3.3290    -1.5160 hn         1 MTI       0.350500
     37 H9          -0.7960    -2.1250    -2.6670 h5         1 MTI       0.067800
@<TRIPOS>BOND
     1     1     2 1   
     2     1    21 1   
     3     1    22 1   
     4     1    23 1   
     5     2     3 1   
     6     3     4 1   
     7     3    24 1   
     8     3    25 1   
     9     4     5 1   
    10     4     8 1   
    11     4    26 1   
    12     5    10 1   
    13     5    27 1   
    14     5    28 1   
    15     6     7 1   
    16     6     8 1   
    17     6    10 1   
    18     6    29 1   
    19     7    30 1   
    20     8     9 1   
    21     8    31 1   
    22     9    32 1   
    23    10    11 1   
    24    10    33 1   
    25    11    12 2   
    26    11    20 1   
    27    12    13 1   
    28    12    34 1   
    29    13    14 1   
    30    13    35 1   
    31    14    15 1   
    32    14    20 2   
    33    15    16 2   
    34    15    17 1   
    35    17    18 1   
    36    17    36 1   
    37    18    19 2   
    38    18    37 1   
    39    19    20 1   
@<TRIPOS>SUBSTRUCTURE
     1 MTI         1 TEMP              0 ****  ****    0 ROOT
