@<TRIPOS>MOLECULE
MTI
   37    39     1     0     0
SMALL
No Charge or Current Charge


@<TRIPOS>ATOM
      1 CS           2.3470    -2.9270    -1.3970 c3         1 MTI       0.054900
      2 S5           2.6050    -1.1140    -1.6730 ss         1 MTI      -0.430000
      3 C5           2.4090    -0.4970     0.0640 c3         1 MTI       0.029600
      4 C4           2.2970     1.0410     0.1150 c5         1 MTI       0.130300
      5 N4           1.1150     1.4990    -0.7600 ny         1 MTI      -0.831000
      6 C2           0.8700     2.7000     1.2450 c5         1 MTI       0.125300
      7 O2           1.4690     3.9120     0.7560 oh         1 MTI      -0.659000
      8 C3           1.9590     1.6140     1.5360 c5         1 MTI       0.122300
      9 O3           3.1060     2.1990     2.1740 oh         1 MTI      -0.637000
     10 C1           0.0090     1.9900     0.1510 c5         1 MTI       0.224600
     11 C9          -0.8300     0.8460     0.6820 cc         1 MTI      -0.236300
     12 C8          -1.3150     0.6050     1.9430 cd         1 MTI      -0.100000
     13 N7          -2.0170    -0.6110     1.8540 na         1 MTI      -0.043000
     14 C7          -1.9500    -1.0920     0.5330 cd         1 MTI      -0.257600
     15 C6          -2.5060    -2.3020    -0.0750 c          1 MTI       0.597600
     16 O6          -3.1620    -3.1460     0.5130 o          1 MTI      -0.504000
     17 N1          -2.1980    -2.3780    -1.3970 ns         1 MTI      -0.397400
     18 C11         -1.4620    -1.4400    -2.0790 cd         1 MTI       0.519800
     19 N3          -0.9520    -0.3340    -1.5200 nc         1 MTI      -0.653100
     20 C10         -1.2270    -0.1910    -0.1800 cc         1 MTI       0.100400
     21 HS1          1.3480    -3.1030    -0.9760 h1         1 MTI       0.074367
     22 HS2          2.4320    -3.4630    -2.3510 h1         1 MTI       0.074367
     23 HS3          3.1030    -3.3120    -0.7020 h1         1 MTI       0.074367
     24 H5'1         1.5010    -0.9360     0.4980 h1         1 MTI       0.093200
     25 H5'2         3.2670    -0.8210     0.6680 h1         1 MTI       0.093200
     26 H4           3.2240     1.4620    -0.2890 hx         1 MTI       0.129700
     27 H4'1         1.3920     2.2340    -1.4400 hn         1 MTI       0.533000
     28 H4'2         0.7310     0.7220    -1.3470 hn         1 MTI       0.533000
     29 H1           0.2700     2.9120     2.1420 h1         1 MTI       0.089700
     30 H2           2.3850     3.8980     1.1220 ho         1 MTI       0.491000
     31 H3           1.5320     0.8200     2.1670 h1         1 MTI       0.072700
     32 H7           2.9960     2.0840     3.1460 ho         1 MTI       0.480000
     33 H6          -0.6370     2.6900    -0.3910 hx         1 MTI       0.127700
     34 H8          -1.2280     1.1690     2.8660 h4         1 MTI       0.169000
     35 HN7         -2.4980    -1.0690     2.6240 hn         1 MTI       0.392000
     36 HN1         -2.5500    -3.1870    -1.8860 hn         1 MTI       0.350500
     37 H9          -1.3250    -1.6790    -3.1270 h5         1 MTI       0.067800
@<TRIPOS>BOND
     1     1     2 1   
     2     1    21 1   
     3     1    22 1   
     4     1    23 1   
     5     2     3 1   
     6     3     4 1   
     7     3    24 1   
     8     3    25 1   
     9     4     5 1   
    10     4     8 1   
    11     4    26 1   
    12     5    10 1   
    13     5    27 1   
    14     5    28 1   
    15     6     7 1   
    16     6     8 1   
    17     6    10 1   
    18     6    29 1   
    19     7    30 1   
    20     8     9 1   
    21     8    31 1   
    22     9    32 1   
    23    10    11 1   
    24    10    33 1   
    25    11    12 2   
    26    11    20 1   
    27    12    13 1   
    28    12    34 1   
    29    13    14 1   
    30    13    35 1   
    31    14    15 1   
    32    14    20 2   
    33    15    16 2   
    34    15    17 1   
    35    17    18 1   
    36    17    36 1   
    37    18    19 2   
    38    18    37 1   
    39    19    20 1   
@<TRIPOS>SUBSTRUCTURE
     1 MTI         1 TEMP              0 ****  ****    0 ROOT
