@<TRIPOS>MOLECULE
MTJ
   29    29     1     0     0
SMALL
No Charge or Current Charge


@<TRIPOS>ATOM
      1 N            1.3580     0.5140     1.8160 n7         1 MTJ      -0.827400
      2 CN           1.8740     1.7550     2.4210 c3         1 MTJ       0.160100
      3 CA          -0.1100     0.2550     2.0200 c3         1 MTJ       0.035500
      4 CB          -0.5420    -0.9530     1.1470 c3         1 MTJ      -0.028100
      5 CG          -0.3390    -0.7180    -0.3490 ca         1 MTJ      -0.083300
      6 CD1          0.6830    -1.3910    -1.0470 ca         1 MTJ      -0.080500
      7 CE1          0.8640    -1.1710    -2.4230 ca         1 MTJ      -0.176000
      8 CZ           0.0300    -0.2810    -3.1180 ca         1 MTJ       0.106100
      9 OM           0.2550    -0.1060    -4.4680 os         1 MTJ      -0.354100
     10 CM          -0.5430     0.7840    -5.2700 c3         1 MTJ       0.155900
     11 CE2         -0.9970     0.3940    -2.4240 ca         1 MTJ      -0.176000
     12 CD2         -1.1770     0.1740    -1.0460 ca         1 MTJ      -0.080500
     13 C           -0.5610     0.0690     3.5290 c          1 MTJ       0.719000
     14 O27         -1.1050     1.0140     4.0900 o          1 MTJ      -0.724500
     15 O28         -0.3850    -1.0130     4.0780 o          1 MTJ      -0.724500
     16 HN1          1.5250     0.5650     0.8050 hn         1 MTJ       0.366000
     17 HN1A         2.9450     1.8690     2.2060 h1         1 MTJ       0.014367
     18 HN2          1.3490     2.6310     2.0170 h1         1 MTJ       0.014367
     19 HN3          1.7450     1.7450     3.5110 h1         1 MTJ       0.014367
     20 HA          -0.6630     1.1260     1.6410 h1         1 MTJ       0.003700
     21 HB1          0.0010    -1.8480     1.4730 hc         1 MTJ       0.060700
     22 HB2         -1.6020    -1.1590     1.3380 hc         1 MTJ       0.060700
     23 HD1          1.3390    -2.0830    -0.5220 ha         1 MTJ       0.119500
     24 HE1          1.6560    -1.6940    -2.9540 ha         1 MTJ       0.107000
     25 HM1         -0.1950     0.7730    -6.3100 h1         1 MTJ       0.030700
     26 HM2         -1.5970     0.4770    -5.2600 h1         1 MTJ       0.030700
     27 HM3         -0.4710     1.8140    -4.8980 h1         1 MTJ       0.030700
     28 HE2         -1.6600     1.0890    -2.9300 ha         1 MTJ       0.107000
     29 HD2         -1.9710     0.6990    -0.5180 ha         1 MTJ       0.119500
@<TRIPOS>BOND
     1     1     2 1   
     2     1     3 1   
     3     1    16 1   
     4     2    17 1   
     5     2    18 1   
     6     2    19 1   
     7     3     4 1   
     8     3    13 1   
     9     3    20 1   
    10     4     5 1   
    11     4    21 1   
    12     4    22 1   
    13     5     6 ar  
    14     5    12 ar  
    15     6     7 ar  
    16     6    23 1   
    17     7     8 ar  
    18     7    24 1   
    19     8     9 1   
    20     8    11 ar  
    21     9    10 1   
    22    10    25 1   
    23    10    26 1   
    24    10    27 1   
    25    11    12 ar  
    26    11    28 1   
    27    12    29 1   
    28    13    14 1   
    29    13    15 1   
@<TRIPOS>SUBSTRUCTURE
     1 MTJ         1 TEMP              0 ****  ****    0 ROOT
