@<TRIPOS>MOLECULE
MTJ
   29    29     1     0     0
SMALL
abcg2


@<TRIPOS>ATOM
      1 N            1.3420     0.4420     1.7820 n7         1 MTJ      -0.827400
      2 CN           1.9010     1.6310     2.3890 c3         1 MTJ       0.160100
      3 CA          -0.0860     0.3180     1.9790 c3         1 MTJ       0.035500
      4 CB          -0.6290    -0.8460     1.1340 c3         1 MTJ      -0.028100
      5 CG          -0.4120    -0.6620    -0.3420 ca         1 MTJ      -0.083300
      6 CD1          0.6220    -1.3120    -1.0170 ca         1 MTJ      -0.080500
      7 CE1          0.8410    -1.1140    -2.3700 ca         1 MTJ      -0.176000
      8 CZ           0.0210    -0.2500    -3.0950 ca         1 MTJ       0.106100
      9 OM           0.3020    -0.1140    -4.4080 os         1 MTJ      -0.354100
     10 CM          -0.5080     0.7450    -5.1840 c3         1 MTJ       0.155900
     11 CE2         -1.0190     0.4070    -2.4400 ca         1 MTJ      -0.176000
     12 CD2         -1.2200     0.1950    -1.0810 ca         1 MTJ      -0.080500
     13 C           -0.4810     0.0560     3.4520 c          1 MTJ       0.719000
     14 O27         -1.6560     0.3620     3.7480 o          1 MTJ      -0.724500
     15 O28          0.3610    -0.4670     4.2020 o          1 MTJ      -0.724500
     16 HN1          1.5200     0.4870     0.7860 hn         1 MTJ       0.366000
     17 HN1A         2.9510     1.7280     2.1090 h1         1 MTJ       0.014367
     18 HN2          1.3930     2.5630     2.0970 h1         1 MTJ       0.014367
     19 HN3          1.8570     1.5570     3.4750 h1         1 MTJ       0.014367
     20 HA          -0.6190     1.2320     1.6590 h1         1 MTJ       0.003700
     21 HB1         -0.1510    -1.7710     1.4670 hc         1 MTJ       0.060700
     22 HB2         -1.6970    -0.9440     1.3400 hc         1 MTJ       0.060700
     23 HD1          1.2710    -1.9890    -0.4740 ha         1 MTJ       0.119500
     24 HE1          1.6510    -1.6290    -2.8740 ha         1 MTJ       0.107000
     25 HM1         -0.1110     0.7170    -6.1950 h1         1 MTJ       0.030700
     26 HM2         -1.5500     0.4160    -5.2060 h1         1 MTJ       0.030700
     27 HM3         -0.4740     1.7770    -4.8220 h1         1 MTJ       0.030700
     28 HE2         -1.6800     1.0820    -2.9670 ha         1 MTJ       0.107000
     29 HD2         -2.0350     0.7140    -0.5900 ha         1 MTJ       0.119500
@<TRIPOS>BOND
     1     1     2 1   
     2     1     3 1   
     3     1    16 1   
     4     2    17 1   
     5     2    18 1   
     6     2    19 1   
     7     3     4 1   
     8     3    13 1   
     9     3    20 1   
    10     4     5 1   
    11     4    21 1   
    12     4    22 1   
    13     5     6 ar  
    14     5    12 ar  
    15     6     7 ar  
    16     6    23 1   
    17     7     8 ar  
    18     7    24 1   
    19     8     9 1   
    20     8    11 ar  
    21     9    10 1   
    22    10    25 1   
    23    10    26 1   
    24    10    27 1   
    25    11    12 ar  
    26    11    28 1   
    27    12    29 1   
    28    13    14 1   
    29    13    15 1   
@<TRIPOS>SUBSTRUCTURE
     1 MTJ         1 TEMP              0 ****  ****    0 ROOT
