@<TRIPOS>MOLECULE
MTK
   76    80     1     0     0
SMALL
abcg2


@<TRIPOS>ATOM
      1 CAQ         -6.3230     0.9950    -2.6110 ca         1 MTK      -0.153000
      2 CAS         -7.5960     0.9830    -2.1250 ca         1 MTK      -0.063000
      3 CBK         -7.8070     0.7890    -0.7440 ca         1 MTK      -0.094000
      4 CAR         -9.0890     0.7520    -0.1540 ca         1 MTK      -0.080000
      5 CAO         -9.2350     0.5540     1.1900 ca         1 MTK      -0.110000
      6 CBE         -8.0850     0.3890     1.9880 ca         1 MTK       0.124000
      7 CLAF        -8.2970     0.1420     3.6890 cl         1 MTK      -0.204000
      8 CAU         -6.8250     0.4200     1.4620 ca         1 MTK      -0.076000
      9 CBL         -6.6590     0.6210     0.0710 ca         1 MTK       0.290000
     10 NBB         -5.4080     0.6390    -0.4270 nb         1 MTK      -0.675000
     11 CBG         -5.2340     0.8160    -1.7170 ca         1 MTK       0.438800
     12 CAH         -3.8760     0.8220    -2.2590 ce         1 MTK      -0.327800
     13 CAG         -2.7720     0.6860    -1.5140 cf         1 MTK      -0.079200
     14 CBF         -1.3960     0.6660    -2.0010 ca         1 MTK      -0.080800
     15 CAT         -0.3620     0.5200    -1.0720 ca         1 MTK      -0.079000
     16 CAL         -1.0620     0.7780    -3.3540 ca         1 MTK      -0.094000
     17 CAK          0.2630     0.7400    -3.7520 ca         1 MTK      -0.119000
     18 CAN          1.2770     0.5880    -2.8150 ca         1 MTK      -0.076000
     19 CBI          0.9710     0.4760    -1.4610 ca         1 MTK      -0.057300
     20 CBM          2.0630     0.3020    -0.4400 c3         1 MTK       0.108600
     21 SBC          3.0700     1.8290    -0.4570 ss         1 MTK      -0.417000
     22 CAZ          4.0260     1.6230     1.0830 c3         1 MTK       0.103600
     23 CBO          4.8930     2.8370     1.3310 cx         1 MTK      -0.077000
     24 CAX          4.1740     4.0310     1.8790 cx         1 MTK      -0.119900
     25 CAY          5.0450     3.2020     2.7800 cx         1 MTK      -0.119900
     26 CBA          6.0370     2.9400     0.3420 c3         1 MTK      -0.181400
     27 CBD          7.0590     4.0940     0.3950 c          1 MTK       0.723000
     28 OAC          7.9110     4.0650    -0.5180 o          1 MTK      -0.739000
     29 OAD          6.9890     4.9460     1.3000 o          1 MTK      -0.739000
     30 CAW          2.9040    -0.9470    -0.6900 c3         1 MTK      -0.069400
     31 CAV          2.0960    -2.2340    -0.5000 c3         1 MTK      -0.040100
     32 CBH          2.9570    -3.4650    -0.6540 ca         1 MTK      -0.057300
     33 CAM          3.2240    -3.8450    -1.9710 ca         1 MTK      -0.114000
     34 CAI          4.0150    -4.9380    -2.2830 ca         1 MTK      -0.108000
     35 CAJ          4.5520    -5.6870    -1.2490 ca         1 MTK      -0.118000
     36 CAP          4.2930    -5.3270     0.0640 ca         1 MTK      -0.106000
     37 CBJ          3.5120    -4.2180     0.3980 ca         1 MTK      -0.099300
     38 CBN          3.2710    -3.9340     1.8930 c3         1 MTK       0.234300
     39 CAA          3.6070    -2.4940     2.2950 c3         1 MTK      -0.101600
     40 CAB          1.8320    -4.2950     2.2610 c3         1 MTK      -0.101600
     41 OAE          4.0700    -4.7930     2.6910 oh         1 MTK      -0.669000
     42 HAQ         -6.1330     1.1360    -3.6670 ha         1 MTK       0.124000
     43 HAS         -8.4440     1.1150    -2.7850 ha         1 MTK       0.117000
     44 HAR         -9.9630     0.8810    -0.7800 ha         1 MTK       0.116000
     45 HAO        -10.2180     0.5220     1.6400 ha         1 MTK       0.127000
     46 HAU         -5.9470     0.2930     2.0810 ha         1 MTK       0.148000
     47 HAH         -3.8060     0.9400    -3.3350 ha         1 MTK       0.176000
     48 HAG         -2.8920     0.5740    -0.4400 ha         1 MTK       0.194000
     49 HAT         -0.6080     0.4330    -0.0190 ha         1 MTK       0.113000
     50 HAL         -1.8340     0.8890    -4.1040 ha         1 MTK       0.105000
     51 HAK          0.5090     0.8270    -4.8020 ha         1 MTK       0.112000
     52 HAN          2.3080     0.5570    -3.1470 ha         1 MTK       0.131000
     53 HBM          1.6070     0.2350     0.5540 h1         1 MTK       0.060700
     54 HAZ1         3.3140     1.4820     1.9010 h1         1 MTK       0.041700
     55 HAZ2         4.6460     0.7260     1.0170 h1         1 MTK       0.041700
     56 HAX1         4.5320     5.0130     1.6090 hc         1 MTK       0.070950
     57 HAX2         3.0980     3.9540     1.9930 hc         1 MTK       0.070950
     58 HAY1         4.5670     2.5640     3.5150 hc         1 MTK       0.070950
     59 HAY2         5.9830     3.6340     3.0970 hc         1 MTK       0.070950
     60 HBA1         6.6130     2.0070     0.4010 hc         1 MTK       0.029700
     61 HBA2         5.6190     2.9360    -0.6720 hc         1 MTK       0.029700
     62 HAW1         3.3210    -0.9150    -1.6990 hc         1 MTK       0.058200
     63 HAW2         3.7600    -0.9530    -0.0130 hc         1 MTK       0.058200
     64 HAV1         1.5820    -2.2100     0.4600 hc         1 MTK       0.047200
     65 HAV2         1.3020    -2.2700    -1.2500 hc         1 MTK       0.047200
     66 HAM          2.7880    -3.2640    -2.7760 ha         1 MTK       0.111000
     67 HAI          4.1970    -5.2030    -3.3160 ha         1 MTK       0.109000
     68 HAJ          5.1640    -6.5550    -1.4570 ha         1 MTK       0.107000
     69 HAP          4.7070    -5.9410     0.8520 ha         1 MTK       0.118000
     70 HAA1         2.9250    -1.7570     1.8810 hc         1 MTK       0.045533
     71 HAA2         3.5530    -2.4050     3.3810 hc         1 MTK       0.045533
     72 HAA3         4.6190    -2.2270     1.9810 hc         1 MTK       0.045533
     73 HAB1         1.6410    -5.3510     2.0630 hc         1 MTK       0.045533
     74 HAB2         1.6510    -4.1050     3.3210 hc         1 MTK       0.045533
     75 HAB3         1.1080    -3.7170     1.6910 hc         1 MTK       0.045533
     76 HOAE         4.9890    -4.5120     2.6190 ho         1 MTK       0.445000
@<TRIPOS>BOND
     1     1     2 ar  
     2     1    11 ar  
     3     1    42 1   
     4     2     3 ar  
     5     2    43 1   
     6     3     4 ar  
     7     3     9 ar  
     8     4     5 ar  
     9     4    44 1   
    10     5     6 ar  
    11     5    45 1   
    12     6     7 1   
    13     6     8 ar  
    14     8     9 ar  
    15     8    46 1   
    16     9    10 ar  
    17    10    11 ar  
    18    11    12 1   
    19    12    13 2   
    20    12    47 1   
    21    13    14 1   
    22    13    48 1   
    23    14    15 ar  
    24    14    16 ar  
    25    15    19 ar  
    26    15    49 1   
    27    16    17 ar  
    28    16    50 1   
    29    17    18 ar  
    30    17    51 1   
    31    18    19 ar  
    32    18    52 1   
    33    19    20 1   
    34    20    21 1   
    35    20    30 1   
    36    20    53 1   
    37    21    22 1   
    38    22    23 1   
    39    22    54 1   
    40    22    55 1   
    41    23    24 1   
    42    23    25 1   
    43    23    26 1   
    44    24    25 1   
    45    24    56 1   
    46    24    57 1   
    47    25    58 1   
    48    25    59 1   
    49    26    27 1   
    50    26    60 1   
    51    26    61 1   
    52    27    28 1   
    53    27    29 1   
    54    30    31 1   
    55    30    62 1   
    56    30    63 1   
    57    31    32 1   
    58    31    64 1   
    59    31    65 1   
    60    32    33 ar  
    61    32    37 ar  
    62    33    34 ar  
    63    33    66 1   
    64    34    35 ar  
    65    34    67 1   
    66    35    36 ar  
    67    35    68 1   
    68    36    37 ar  
    69    36    69 1   
    70    37    38 1   
    71    38    39 1   
    72    38    40 1   
    73    38    41 1   
    74    39    70 1   
    75    39    71 1   
    76    39    72 1   
    77    40    73 1   
    78    40    74 1   
    79    40    75 1   
    80    41    76 1   
@<TRIPOS>SUBSTRUCTURE
     1 MTK         1 TEMP              0 ****  ****    0 ROOT
