@<TRIPOS>MOLECULE
MTK
   76    80     1     0     0
SMALL
No Charge or Current Charge


@<TRIPOS>ATOM
      1 CAQ         -6.4180     0.8480    -2.5710 ca         1 MTK      -0.153000
      2 CAS         -7.7190     0.8110    -2.0490 ca         1 MTK      -0.063000
      3 CBK         -7.8750     0.6400    -0.6630 ca         1 MTK      -0.094000
      4 CAR         -9.1640     0.5970    -0.0970 ca         1 MTK      -0.080000
      5 CAO         -9.3130     0.4260     1.2880 ca         1 MTK      -0.110000
      6 CBE         -8.1780     0.3000     2.1020 ca         1 MTK       0.124000
      7 ClAF        -8.3660     0.0860     3.8380 cl         1 MTK      -0.204000
      8 CAU         -6.8930     0.3430     1.5380 ca         1 MTK      -0.076000
      9 CBL         -6.7210     0.5130     0.1540 ca         1 MTK       0.290000
     10 NBB         -5.4720     0.5510    -0.3660 nb         1 MTK      -0.675000
     11 CBG         -5.3230     0.7150    -1.6990 ca         1 MTK       0.438800
     12 CAH         -3.9320     0.7500    -2.2210 ce         1 MTK      -0.327800
     13 CAG         -2.7570     0.6390    -1.5320 cf         1 MTK      -0.079200
     14 CBF         -1.3660     0.6710    -2.0320 ca         1 MTK      -0.080800
     15 CAT         -0.3010     0.5320    -1.1170 ca         1 MTK      -0.079000
     16 CAL         -1.0700     0.8360    -3.4010 ca         1 MTK      -0.094000
     17 CAK          0.2630     0.8600    -3.8430 ca         1 MTK      -0.119000
     18 CAN          1.3150     0.7200    -2.9230 ca         1 MTK      -0.076000
     19 CBI          1.0390     0.5530    -1.5520 ca         1 MTK      -0.057300
     20 CBM          2.1730     0.3840    -0.5410 c3         1 MTK       0.108600
     21 SBC          3.2770     1.8690    -0.5680 ss         1 MTK      -0.417000
     22 CAZ          4.0710     1.7250     1.1020 c3         1 MTK       0.103600
     23 CBO          5.0010     2.9330     1.2880 cx         1 MTK      -0.077000
     24 CAX          4.3730     4.2960     1.5100 cx         1 MTK      -0.119900
     25 CAY          5.0420     3.5840     2.6600 cx         1 MTK      -0.119900
     26 CBA          6.2790     2.7970     0.4210 c3         1 MTK      -0.181400
     27 CBD          7.4240     3.7670     0.7940 c          1 MTK       0.723000
     28 OAC          7.4500     4.8680     0.2640 o          1 MTK      -0.739000
     29 OAD          8.2270     3.4120     1.6440 o          1 MTK      -0.739000
     30 CAW          2.9990    -0.9020    -0.7860 c3         1 MTK      -0.069400
     31 CAV          2.1640    -2.2000    -0.6770 c3         1 MTK      -0.040100
     32 CBH          3.0320    -3.4610    -0.7210 ca         1 MTK      -0.057300
     33 CAM          3.4390    -3.8540    -2.0150 ca         1 MTK      -0.114000
     34 CAI          4.2000    -5.0080    -2.2240 ca         1 MTK      -0.108000
     35 CAJ          4.5580    -5.8000    -1.1330 ca         1 MTK      -0.118000
     36 CAP          4.1710    -5.4290     0.1620 ca         1 MTK      -0.106000
     37 CBJ          3.4220    -4.2440     0.4190 ca         1 MTK      -0.099300
     38 CBN          3.0420    -3.9050     1.9020 c3         1 MTK       0.234300
     39 CAA          3.3600    -2.4460     2.3270 c3         1 MTK      -0.101600
     40 CAB          1.5690    -4.2790     2.1910 c3         1 MTK      -0.101600
     41 OAE          3.8190    -4.6980     2.8040 oh         1 MTK      -0.669000
     42 HAQ         -6.2580     0.9780    -3.6370 ha         1 MTK       0.124000
     43 HAS         -8.5810     0.9110    -2.7050 ha         1 MTK       0.117000
     44 HAR        -10.0460     0.6950    -0.7270 ha         1 MTK       0.116000
     45 HAO        -10.3060     0.3920     1.7300 ha         1 MTK       0.127000
     46 HAU         -6.0220     0.2440     2.1780 ha         1 MTK       0.148000
     47 HAH         -3.8910     0.8840    -3.2990 ha         1 MTK       0.176000
     48 HAG         -2.8310     0.5060    -0.4490 ha         1 MTK       0.194000
     49 HAT         -0.5160     0.4010    -0.0590 ha         1 MTK       0.113000
     50 HAL         -1.8640     0.9460    -4.1340 ha         1 MTK       0.105000
     51 HAK          0.4820     0.9890    -4.9000 ha         1 MTK       0.112000
     52 HAN          2.3430     0.7420    -3.2770 ha         1 MTK       0.131000
     53 HBM          1.7370     0.3230     0.4650 h1         1 MTK       0.060700
     54 HAZ1         3.2850     1.7230     1.8690 h1         1 MTK       0.041700
     55 HAZ2         4.6360     0.7870     1.1780 h1         1 MTK       0.041700
     56 HAX1         4.8700     5.1690     1.0960 hc         1 MTK       0.070950
     57 HAX2         3.2880     4.3610     1.5190 hc         1 MTK       0.070950
     58 HAY1         4.4010     3.1770     3.4380 hc         1 MTK       0.070950
     59 HAY2         5.9750     3.9990     3.0290 hc         1 MTK       0.070950
     60 HBA1         6.6380     1.7710     0.5670 hc         1 MTK       0.029700
     61 HBA2         5.9680     2.9990    -0.6100 hc         1 MTK       0.029700
     62 HAW1         3.4700    -0.8550    -1.7750 hc         1 MTK       0.058200
     63 HAW2         3.8200    -0.9450    -0.0630 hc         1 MTK       0.058200
     64 HAV1         1.5200    -2.1630     0.2020 hc         1 MTK       0.047200
     65 HAV2         1.4590    -2.2230    -1.5170 hc         1 MTK       0.047200
     66 HAM          3.1510    -3.2570    -2.8780 ha         1 MTK       0.111000
     67 HAI          4.4990    -5.2930    -3.2310 ha         1 MTK       0.109000
     68 HAJ          5.1350    -6.7090    -1.2890 ha         1 MTK       0.107000
     69 HAP          4.4640    -6.0990     0.9660 ha         1 MTK       0.118000
     70 HAA1         2.6180    -1.7260     1.9760 hc         1 MTK       0.045533
     71 HAA2         3.3700    -2.3540     3.4200 hc         1 MTK       0.045533
     72 HAA3         4.3470    -2.1410     1.9590 hc         1 MTK       0.045533
     73 HAB1         1.3970    -5.3420     1.9850 hc         1 MTK       0.045533
     74 HAB2         1.3190    -4.0940     3.2430 hc         1 MTK       0.045533
     75 HAB3         0.8680    -3.7070     1.5770 hc         1 MTK       0.045533
     76 HOAE         4.7580    -4.4890     2.6150 ho         1 MTK       0.445000
@<TRIPOS>BOND
     1     1     2 ar  
     2     1    11 ar  
     3     1    42 1   
     4     2     3 ar  
     5     2    43 1   
     6     3     4 ar  
     7     3     9 ar  
     8     4     5 ar  
     9     4    44 1   
    10     5     6 ar  
    11     5    45 1   
    12     6     7 1   
    13     6     8 ar  
    14     8     9 ar  
    15     8    46 1   
    16     9    10 ar  
    17    10    11 ar  
    18    11    12 1   
    19    12    13 2   
    20    12    47 1   
    21    13    14 1   
    22    13    48 1   
    23    14    15 ar  
    24    14    16 ar  
    25    15    19 ar  
    26    15    49 1   
    27    16    17 ar  
    28    16    50 1   
    29    17    18 ar  
    30    17    51 1   
    31    18    19 ar  
    32    18    52 1   
    33    19    20 1   
    34    20    21 1   
    35    20    30 1   
    36    20    53 1   
    37    21    22 1   
    38    22    23 1   
    39    22    54 1   
    40    22    55 1   
    41    23    24 1   
    42    23    25 1   
    43    23    26 1   
    44    24    25 1   
    45    24    56 1   
    46    24    57 1   
    47    25    58 1   
    48    25    59 1   
    49    26    27 1   
    50    26    60 1   
    51    26    61 1   
    52    27    28 1   
    53    27    29 1   
    54    30    31 1   
    55    30    62 1   
    56    30    63 1   
    57    31    32 1   
    58    31    64 1   
    59    31    65 1   
    60    32    33 ar  
    61    32    37 ar  
    62    33    34 ar  
    63    33    66 1   
    64    34    35 ar  
    65    34    67 1   
    66    35    36 ar  
    67    35    68 1   
    68    36    37 ar  
    69    36    69 1   
    70    37    38 1   
    71    38    39 1   
    72    38    40 1   
    73    38    41 1   
    74    39    70 1   
    75    39    71 1   
    76    39    72 1   
    77    40    73 1   
    78    40    74 1   
    79    40    75 1   
    80    41    76 1   
@<TRIPOS>SUBSTRUCTURE
     1 MTK         1 TEMP              0 ****  ****    0 ROOT
