@<TRIPOS>MOLECULE
MTL
   26    25     1     0     0
SMALL
No Charge or Current Charge


@<TRIPOS>ATOM
      1 O1          -0.0810     0.3540     4.3660 oh         1 MTL      -0.707500
      2 C1           0.5980    -0.1170     3.1850 c3         1 MTL       0.128600
      3 C2          -0.3290     0.0500     1.9510 c3         1 MTL       0.137300
      4 O2          -0.8590     1.3850     2.0080 oh         1 MTL      -0.691000
      5 C3           0.3960    -0.2000     0.5880 c3         1 MTL       0.108800
      6 O3           0.9740    -1.5310     0.5670 oh         1 MTL      -0.708500
      7 C4          -0.5540    -0.0740    -0.6440 c3         1 MTL       0.108800
      8 O4          -1.3680    -1.2600    -0.6610 oh         1 MTL      -0.708500
      9 C5           0.2100     0.0700    -2.0000 c3         1 MTL       0.137300
     10 O5           1.0110     1.2640    -2.0110 oh         1 MTL      -0.691000
     11 C6          -0.7360     0.1520    -3.2280 c3         1 MTL       0.128600
     12 O6           0.0220     0.5160    -4.4000 oh         1 MTL      -0.707500
     13 HO1          0.4960     0.1400     5.1390 ho         1 MTL       0.503500
     14 H11          1.5250     0.4510     3.0270 h1         1 MTL       0.027200
     15 H12          0.8670    -1.1760     3.2960 h1         1 MTL       0.027200
     16 H2          -1.1440    -0.6820     2.0460 h1         1 MTL       0.093700
     17 HO2         -0.8850     1.5690     2.9800 ho         1 MTL       0.495000
     18 H3           1.1840     0.5620     0.4920 h1         1 MTL       0.085700
     19 HO3          1.9220    -1.4520     0.8270 ho         1 MTL       0.499500
     20 H4          -1.1820     0.8210    -0.5220 h1         1 MTL       0.085700
     21 HO4         -0.7750    -1.9310    -0.2380 ho         1 MTL       0.499500
     22 H5           0.8510    -0.8140    -2.1300 h1         1 MTL       0.093700
     23 HO5          1.0680     1.4800    -2.9750 ho         1 MTL       0.495000
     24 H61         -1.2250    -0.8210    -3.3750 h1         1 MTL       0.027200
     25 H62         -1.5220     0.8960    -3.0360 h1         1 MTL       0.027200
     26 HO6         -0.5920     0.4600    -5.1710 ho         1 MTL       0.503500
@<TRIPOS>BOND
     1     1     2 1   
     2     1    13 1   
     3     2     3 1   
     4     2    14 1   
     5     2    15 1   
     6     3     4 1   
     7     3     5 1   
     8     3    16 1   
     9     4    17 1   
    10     5     6 1   
    11     5     7 1   
    12     5    18 1   
    13     6    19 1   
    14     7     8 1   
    15     7     9 1   
    16     7    20 1   
    17     8    21 1   
    18     9    10 1   
    19     9    11 1   
    20     9    22 1   
    21    10    23 1   
    22    11    12 1   
    23    11    24 1   
    24    11    25 1   
    25    12    26 1   
@<TRIPOS>SUBSTRUCTURE
     1 MTL         1 TEMP              0 ****  ****    0 ROOT
