@<TRIPOS>MOLECULE
MTL
   26    25     1     0     0
SMALL
bcc


@<TRIPOS>ATOM
      1 O1          -0.0420     0.0450     4.3120 oh         1 MTL      -0.585300
      2 C1           0.6950     0.0540     3.1110 c3         1 MTL       0.105400
      3 C2          -0.2780     0.0080     1.9420 c3         1 MTL       0.114100
      4 O2          -1.1690     1.1000     1.9640 oh         1 MTL      -0.568800
      5 C3           0.4730    -0.0720     0.6010 c3         1 MTL       0.085600
      6 O3           1.3370    -1.1900     0.5610 oh         1 MTL      -0.586300
      7 C4          -0.4840    -0.0670    -0.5980 c3         1 MTL       0.085600
      8 O4          -1.3550    -1.1790    -0.5640 oh         1 MTL      -0.586300
      9 C5           0.2690     0.0150    -1.9380 c3         1 MTL       0.114100
     10 O5           1.1610     1.1060    -1.9560 oh         1 MTL      -0.568800
     11 C6          -0.7040     0.0660    -3.1070 c3         1 MTL       0.105400
     12 O6           0.0330     0.0790    -4.3080 oh         1 MTL      -0.585300
     13 HO1          0.5830     0.0300     5.0420 ho         1 MTL       0.404500
     14 H11          1.3140     0.9600     3.0220 h1         1 MTL       0.027200
     15 H12          1.3750    -0.8010     3.0500 h1         1 MTL       0.027200
     16 H2          -0.9060    -0.8850     2.0460 h1         1 MTL       0.093700
     17 HO2         -0.6570     1.9160     1.9430 ho         1 MTL       0.396000
     18 H3           1.1210     0.8070     0.5210 h1         1 MTL       0.085700
     19 HO3          0.8500    -1.9760     0.8330 ho         1 MTL       0.400500
     20 H4          -1.1270     0.8160    -0.5150 h1         1 MTL       0.085700
     21 HO4         -0.8620    -1.9720    -0.7990 ho         1 MTL       0.400500
     22 H5           0.8950    -0.8790    -2.0450 h1         1 MTL       0.093700
     23 HO5          0.6500     1.9230    -1.9370 ho         1 MTL       0.396000
     24 H61         -1.3750    -0.7970    -3.0560 h1         1 MTL       0.027200
     25 H62         -1.3330     0.9640    -3.0080 h1         1 MTL       0.027200
     26 HO6         -0.5900     0.0430    -5.0380 ho         1 MTL       0.404500
@<TRIPOS>BOND
     1     1     2 1   
     2     1    13 1   
     3     2     3 1   
     4     2    14 1   
     5     2    15 1   
     6     3     4 1   
     7     3     5 1   
     8     3    16 1   
     9     4    17 1   
    10     5     6 1   
    11     5     7 1   
    12     5    18 1   
    13     6    19 1   
    14     7     8 1   
    15     7     9 1   
    16     7    20 1   
    17     8    21 1   
    18     9    10 1   
    19     9    11 1   
    20     9    22 1   
    21    10    23 1   
    22    11    12 1   
    23    11    24 1   
    24    11    25 1   
    25    12    26 1   
@<TRIPOS>SUBSTRUCTURE
     1 MTL         1 TEMP              0 ****  ****    0 ROOT
