@<TRIPOS>MOLECULE
MTM
   39    41     1     0     0
SMALL
abcg2


@<TRIPOS>ATOM
      1 CS           4.9750    -2.3900     0.9070 c3         1 MTM       0.033900
      2 S5           4.0930    -1.4800    -0.3810 ss         1 MTM      -0.417000
      3 C5           3.1020    -0.3610     0.6450 c3         1 MTM       0.073600
      4 C4           2.4830     0.7270    -0.2180 c5         1 MTM       0.182500
      5 N4           1.6480     0.1900    -1.2950 n7         1 MTM      -0.860400
      6 C2           0.5160     2.0870    -0.4180 c5         1 MTM       0.115300
      7 O2           1.0490     3.0630    -1.2830 oh         1 MTM      -0.662000
      8 C3           1.5620     1.6420     0.6040 c5         1 MTM       0.105300
      9 O3           2.2990     2.6960     1.1730 oh         1 MTM      -0.659000
     10 C1           0.3140     0.7900    -1.2040 c5         1 MTM       0.252800
     11 C9          -0.6490    -0.1300    -0.5170 cc         1 MTM      -0.136300
     12 C8          -0.3970    -1.4010    -0.0580 cd         1 MTM      -0.149000
     13 N7          -1.5390    -1.9040     0.4930 na         1 MTM      -0.089000
     14 C7          -2.5310    -0.9820     0.3980 cd         1 MTM      -0.242300
     15 C6          -3.9460    -1.1270     0.8270 c6         1 MTM       0.550000
     16 N6          -4.6090    -2.1890     0.1090 n8         1 MTM      -1.031200
     17 N1          -4.5170     0.2110     0.6470 nu         1 MTM      -0.980400
     18 C11         -3.9570     1.2300    -0.0430 c2         1 MTM       0.623100
     19 N3          -2.7570     1.2760    -0.5000 ne         1 MTM      -0.602100
     20 C10         -2.0200     0.1310    -0.2290 cc         1 MTM       0.084400
     21 HCS1         5.5770    -1.7230     1.5220 h1         1 MTM       0.056700
     22 HCS2         4.2860    -2.9420     1.5440 h1         1 MTM       0.056700
     23 HCS3         5.6360    -3.1000     0.4140 h1         1 MTM       0.056700
     24 H5'1         2.3250    -0.9300     1.1610 h1         1 MTM       0.058700
     25 H5'2         3.7480     0.0940     1.3990 h1         1 MTM       0.058700
     26 H4           3.2980     1.3310    -0.6340 h1         1 MTM       0.067700
     27 HN4          2.0590     0.4140    -2.1890 hn         1 MTM       0.430000
     28 H2          -0.4100     2.4370     0.0540 h1         1 MTM       0.075700
     29 HO'2         1.5810     3.6660    -0.7490 ho         1 MTM       0.454000
     30 H3           1.0570     1.0520     1.3790 h1         1 MTM       0.053700
     31 H3T          1.7720     3.0940     1.8730 ho         1 MTM       0.448000
     32 H1          -0.0590     1.0180    -2.2080 h1         1 MTM       0.086700
     33 H8           0.5090    -1.9840    -0.0920 h4         1 MTM       0.166000
     34 H7          -1.6340    -2.8270     0.8820 hn         1 MTM       0.353000
     35 H6          -4.0260    -1.3850     1.8890 h2         1 MTM       0.061700
     36 H61         -5.5540    -2.3200     0.4470 hn         1 MTM       0.410500
     37 H62         -4.6660    -1.9710    -0.8790 hn         1 MTM       0.410500
     38 HN1         -5.4680     0.3390     0.9540 hn         1 MTM       0.475000
     39 H9          -4.6130     2.0840    -0.1860 h5         1 MTM       0.029800
@<TRIPOS>BOND
     1     1     2 1   
     2     1    21 1   
     3     1    22 1   
     4     1    23 1   
     5     2     3 1   
     6     3     4 1   
     7     3    24 1   
     8     3    25 1   
     9     4     5 1   
    10     4     8 1   
    11     4    26 1   
    12     5    10 1   
    13     5    27 1   
    14     6     7 1   
    15     6     8 1   
    16     6    10 1   
    17     6    28 1   
    18     7    29 1   
    19     8     9 1   
    20     8    30 1   
    21     9    31 1   
    22    10    11 1   
    23    10    32 1   
    24    11    12 2   
    25    11    20 1   
    26    12    13 1   
    27    12    33 1   
    28    13    14 1   
    29    13    34 1   
    30    14    15 1   
    31    14    20 2   
    32    15    16 1   
    33    15    17 1   
    34    15    35 1   
    35    16    36 1   
    36    16    37 1   
    37    17    18 1   
    38    17    38 1   
    39    18    19 2   
    40    18    39 1   
    41    19    20 1   
@<TRIPOS>SUBSTRUCTURE
     1 MTM         1 TEMP              0 ****  ****    0 ROOT
