@<TRIPOS>MOLECULE
MTM
   39    41     1     0     0
SMALL
No Charge or Current Charge


@<TRIPOS>ATOM
      1 CS           5.5920    -2.2150     0.4880 c3         1 MTM       0.033900
      2 S5           4.6510    -1.1530    -0.6970 ss         1 MTM      -0.417000
      3 C5           3.4590    -0.3460     0.4770 c3         1 MTM       0.073600
      4 C4           2.4770     0.6320    -0.2190 c5         1 MTM       0.182500
      5 N4           1.5290    -0.0550    -1.1520 n7         1 MTM      -0.860400
      6 C2           0.4790     1.9460    -0.1960 c5         1 MTM       0.115300
      7 O2           0.9720     3.0160    -1.0270 oh         1 MTM      -0.662000
      8 C3           1.5760     1.4320     0.7790 c5         1 MTM       0.105300
      9 O3           2.2630     2.5100     1.4390 oh         1 MTM      -0.659000
     10 C1           0.2010     0.6190    -0.9890 c5         1 MTM       0.252800
     11 C9          -0.7560    -0.2750    -0.2150 cc         1 MTM      -0.136300
     12 C8          -0.5160    -1.4250     0.4930 cd         1 MTM      -0.149000
     13 N7          -1.7670    -1.8280     0.9920 na         1 MTM      -0.089000
     14 C7          -2.7500    -0.9130     0.5780 cd         1 MTM      -0.242300
     15 C6          -4.2270    -0.8940     0.8530 c6         1 MTM       0.550000
     16 N6          -4.8550    -1.8910     0.0980 n8         1 MTM      -1.031200
     17 N1          -4.8350     0.1220     0.0600 nu         1 MTM      -0.980400
     18 C11         -4.1110     1.1120    -0.6070 c2         1 MTM       0.623100
     19 N3          -2.8180     1.0780    -0.7370 ne         1 MTM      -0.602100
     20 C10         -2.1290     0.0330    -0.1690 cc         1 MTM       0.084400
     21 HCS1         6.0750    -1.5880     1.2490 h1         1 MTM       0.056700
     22 HCS2         4.9100    -2.9190     0.9810 h1         1 MTM       0.056700
     23 HCS3         6.3620    -2.7800    -0.0520 h1         1 MTM       0.056700
     24 H5'1         2.8850    -1.1230     0.9980 h1         1 MTM       0.058700
     25 H5'2         4.0370     0.2090     1.2270 h1         1 MTM       0.058700
     26 H4           3.0890     1.3470    -0.7890 h1         1 MTM       0.067700
     27 HN4          1.8650     0.0930    -2.1100 hn         1 MTM       0.430000
     28 H2          -0.4160     2.2750     0.3500 h1         1 MTM       0.075700
     29 HO'2         1.6650     3.4560    -0.4830 ho         1 MTM       0.454000
     30 H3           1.1390     0.7500     1.5220 h1         1 MTM       0.053700
     31 H3T          1.7210     2.7660     2.2200 ho         1 MTM       0.448000
     32 H1          -0.2490     0.8420    -1.9680 h1         1 MTM       0.086700
     33 H8           0.4040    -1.9710     0.6690 h4         1 MTM       0.166000
     34 H7          -1.9370    -2.6580     1.5530 hn         1 MTM       0.353000
     35 H6          -4.5420    -0.9350     1.9110 h2         1 MTM       0.061700
     36 H61         -5.8470    -1.6730     0.1590 hn         1 MTM       0.410500
     37 H62         -4.6310    -1.5740    -0.8430 hn         1 MTM       0.410500
     38 HN1         -5.7220     0.4700     0.4140 hn         1 MTM       0.475000
     39 H9          -4.7040     1.9330    -1.0190 h5         1 MTM       0.029800
@<TRIPOS>BOND
     1     1     2 1   
     2     1    21 1   
     3     1    22 1   
     4     1    23 1   
     5     2     3 1   
     6     3     4 1   
     7     3    24 1   
     8     3    25 1   
     9     4     5 1   
    10     4     8 1   
    11     4    26 1   
    12     5    10 1   
    13     5    27 1   
    14     6     7 1   
    15     6     8 1   
    16     6    10 1   
    17     6    28 1   
    18     7    29 1   
    19     8     9 1   
    20     8    30 1   
    21     9    31 1   
    22    10    11 1   
    23    10    32 1   
    24    11    12 2   
    25    11    20 1   
    26    12    13 1   
    27    12    33 1   
    28    13    14 1   
    29    13    34 1   
    30    14    15 1   
    31    14    20 2   
    32    15    16 1   
    33    15    17 1   
    34    15    35 1   
    35    16    36 1   
    36    16    37 1   
    37    17    18 1   
    38    17    38 1   
    39    18    19 2   
    40    18    39 1   
    41    19    20 1   
@<TRIPOS>SUBSTRUCTURE
     1 MTM         1 TEMP              0 ****  ****    0 ROOT
