@<TRIPOS>MOLECULE
MTP
   34    36     1     0     0
SMALL
No Charge or Current Charge


@<TRIPOS>ATOM
      1 O5          -4.4210    -1.3990     2.1920 oh         1 MTP      -0.702000
      2 C5          -4.1950    -1.3660     0.7700 c3         1 MTP       0.162600
      3 C4          -3.5520    -0.0220     0.3270 c5         1 MTP       0.159300
      4 O4          -2.1770     0.0540     0.7660 os         1 MTP      -0.426000
      5 C1          -1.4850     1.0310    -0.0510 c5         1 MTP       0.318300
      6 N9          -0.1730     0.4780    -0.3940 na         1 MTP      -0.312300
      7 C8           0.1350    -0.2800    -1.5290 cc         1 MTP       0.428700
      8 N7           1.4390    -0.6120    -1.5590 nd         1 MTP      -0.542100
      9 C7           1.9500    -0.0360    -0.3940 ca         1 MTP      -0.020600
     10 C6           3.2720    -0.0560     0.1040 ca         1 MTP       0.275300
     11 S6           4.5870    -0.9050    -0.7800 ss         1 MTP      -0.288300
     12 CS           6.0880    -0.6380     0.2680 c3         1 MTP       0.016900
     13 N1           3.5600     0.5740     1.2670 nb         1 MTP      -0.227000
     14 C2           2.5350     1.2000     1.8940 ca         1 MTP       0.146900
     15 N3           1.2480     1.2610     1.4790 nb         1 MTP      -0.179000
     16 C9           0.9820     0.6270     0.3210 ca         1 MTP       0.094500
     17 C10         -2.4550     1.3870    -1.2440 c5         1 MTP       0.102300
     18 O2          -3.2140     2.5860    -1.0270 oh         1 MTP      -0.700000
     19 C3          -3.4290     0.1750    -1.2150 c5         1 MTP       0.089300
     20 O3          -4.6710     0.5060    -1.8670 oh         1 MTP      -0.706000
     21 H5          -4.7670    -2.2960     2.4090 ho         1 MTP       0.508000
     22 H5'1        -5.1490    -1.4880     0.2400 h1         1 MTP       0.027200
     23 H5'2        -3.5390    -2.1920     0.4640 h1         1 MTP       0.027200
     24 H4          -4.1180     0.8030     0.7810 h1         1 MTP       0.095700
     25 H1          -1.2870     1.9380     0.5350 h2         1 MTP       0.126700
     26 H8          -0.6060    -0.5510    -2.2710 h5         1 MTP       0.077800
     27 HS1          5.9280    -1.0660     1.2660 h1         1 MTP       0.071367
     28 HS2          6.9540    -1.1270    -0.1960 h1         1 MTP       0.071367
     29 HS3          6.2910     0.4360     0.3630 h1         1 MTP       0.071367
     30 H2           2.7700     1.7060     2.8290 h5         1 MTP       0.051100
     31 H7          -1.9180     1.4480    -2.2010 h1         1 MTP       0.079700
     32 H6          -4.1110     2.3400    -1.3730 ho         1 MTP       0.526000
     33 H3          -2.9660    -0.7070    -1.6820 h1         1 MTP       0.056700
     34 H9          -5.0910    -0.3370    -2.1660 ho         1 MTP       0.519000
@<TRIPOS>BOND
     1     1     2 1   
     2     1    21 1   
     3     2     3 1   
     4     2    22 1   
     5     2    23 1   
     6     3     4 1   
     7     3    19 1   
     8     3    24 1   
     9     4     5 1   
    10     5     6 1   
    11     5    17 1   
    12     5    25 1   
    13     6     7 1   
    14     6    16 1   
    15     7     8 2   
    16     7    26 1   
    17     8     9 1   
    18     9    10 ar  
    19     9    16 ar  
    20    10    11 1   
    21    10    13 ar  
    22    11    12 1   
    23    12    27 1   
    24    12    28 1   
    25    12    29 1   
    26    13    14 ar  
    27    14    15 ar  
    28    14    30 1   
    29    15    16 ar  
    30    17    18 1   
    31    17    19 1   
    32    17    31 1   
    33    18    32 1   
    34    19    20 1   
    35    19    33 1   
    36    20    34 1   
@<TRIPOS>SUBSTRUCTURE
     1 MTP         1 TEMP              0 ****  ****    0 ROOT
