@<TRIPOS>MOLECULE
MTP
   34    36     1     0     0
SMALL
abcg2


@<TRIPOS>ATOM
      1 O5          -4.6920    -2.1540     0.8650 oh         1 MTP      -0.702000
      2 C5          -4.0700    -1.5460    -0.2390 c3         1 MTP       0.162600
      3 C4          -3.6520    -0.1480     0.1400 c5         1 MTP       0.159300
      4 O4          -2.6730    -0.1760     1.1820 os         1 MTP      -0.426000
      5 C1          -1.6430     0.7270     0.9300 c5         1 MTP       0.318300
      6 N9          -0.4230    -0.0140     0.6110 na         1 MTP      -0.312300
      7 C8          -0.2740    -1.3470     0.3500 cc         1 MTP       0.428700
      8 N7           0.9560    -1.6990     0.1070 nd         1 MTP      -0.542100
      9 C7           1.6680    -0.5380     0.2180 ca         1 MTP      -0.020600
     10 C6           3.0190    -0.2180     0.0780 ca         1 MTP       0.275300
     11 S6           4.1610    -1.4640    -0.3380 ss         1 MTP      -0.288300
     12 CS           5.7090    -0.5430    -0.4140 c3         1 MTP       0.016900
     13 N1           3.4060     1.0350     0.2600 nb         1 MTP      -0.227000
     14 C2           2.4930     1.9590     0.5690 ca         1 MTP       0.146900
     15 N3           1.1920     1.7850     0.7210 nb         1 MTP      -0.179000
     16 C9           0.8260     0.5250     0.5370 ca         1 MTP       0.094500
     17 C10         -2.0890     1.5950    -0.2450 c5         1 MTP       0.102300
     18 O2          -2.8330     2.6600     0.2770 oh         1 MTP      -0.700000
     19 C3          -2.9880     0.6140    -1.0040 c5         1 MTP       0.089300
     20 O3          -3.9600     1.2340    -1.7970 oh         1 MTP      -0.706000
     21 H5          -5.0010    -3.0240     0.5950 ho         1 MTP       0.508000
     22 H5'1        -4.7470    -1.4610    -1.0990 h1         1 MTP       0.027200
     23 H5'2        -3.1920    -2.1120    -0.5810 h1         1 MTP       0.027200
     24 H4          -4.5290     0.4100     0.4920 h1         1 MTP       0.095700
     25 H1          -1.4310     1.3270     1.8190 h2         1 MTP       0.126700
     26 H8          -1.1120    -2.0260     0.3620 h5         1 MTP       0.077800
     27 HS1          5.9660    -0.1250     0.5560 h1         1 MTP       0.071367
     28 HS2          6.4670    -1.2670    -0.7060 h1         1 MTP       0.071367
     29 HS3          5.6590     0.2470    -1.1570 h1         1 MTP       0.071367
     30 H2           2.8680     2.9660     0.7070 h5         1 MTP       0.051100
     31 H7          -1.2410     1.9460    -0.8450 h1         1 MTP       0.079700
     32 H6          -3.4930     2.9080    -0.3820 ho         1 MTP       0.526000
     33 H3          -2.3610    -0.0670    -1.5950 h1         1 MTP       0.056700
     34 H9          -3.5710     1.4630    -2.6470 ho         1 MTP       0.519000
@<TRIPOS>BOND
     1     1     2 1   
     2     1    21 1   
     3     2     3 1   
     4     2    22 1   
     5     2    23 1   
     6     3     4 1   
     7     3    19 1   
     8     3    24 1   
     9     4     5 1   
    10     5     6 1   
    11     5    17 1   
    12     5    25 1   
    13     6     7 1   
    14     6    16 1   
    15     7     8 2   
    16     7    26 1   
    17     8     9 1   
    18     9    10 ar  
    19     9    16 ar  
    20    10    11 1   
    21    10    13 ar  
    22    11    12 1   
    23    12    27 1   
    24    12    28 1   
    25    12    29 1   
    26    13    14 ar  
    27    14    15 ar  
    28    14    30 1   
    29    15    16 ar  
    30    17    18 1   
    31    17    19 1   
    32    17    31 1   
    33    18    32 1   
    34    19    20 1   
    35    19    33 1   
    36    20    34 1   
@<TRIPOS>SUBSTRUCTURE
     1 MTP         1 TEMP              0 ****  ****    0 ROOT
