@<TRIPOS>MOLECULE
MTS
   32    33     1     0     0
SMALL
abcg2


@<TRIPOS>ATOM
      1 S1          -1.5300    -0.1590     0.7690 ss         1 MTS       0.478000
      2 C2          -0.1030     0.0220     1.6990 cc         1 MTS      -0.427500
      3 C3           1.0320     0.1030     0.9540 cd         1 MTS       0.025000
      4 C4           0.7580     0.0170    -0.4350 cd         1 MTS      -0.016300
      5 C5           1.8090     0.1300    -1.5060 c6         1 MTS       0.226800
      6 C6           1.2790    -0.3020    -2.8780 c6         1 MTS      -0.099400
      7 C7          -0.0390     0.3620    -3.2830 c6         1 MTS      -0.251700
      8 S8          -1.3400    -0.3110    -2.2360 sy         1 MTS       1.070500
      9 C9          -0.5850    -0.1250    -0.6570 cc         1 MTS      -0.398500
     10 S10         -0.2260     0.0630     3.4490 sy         1 MTS       1.174600
     11 O11         -1.5920    -0.3400     3.7440 o          1 MTS      -0.539000
     12 O12          0.8820    -0.6750     4.0270 o          1 MTS      -0.539000
     13 N13          0.0660     1.6480     3.7630 n8         1 MTS      -1.015100
     14 N14          2.9990    -0.5720    -1.0750 n7         1 MTS      -0.864400
     15 C15         -0.0280     1.8810    -3.2290 c3         1 MTS      -0.074100
     16 O16         -2.5370     0.5230    -2.2550 o          1 MTS      -0.512500
     17 O17         -1.4960    -1.7360    -2.5130 o          1 MTS      -0.512500
     18 C18          4.1910    -0.2600    -1.8410 c3         1 MTS       0.148100
     19 H3           2.0250     0.2220     1.3610 ha         1 MTS       0.165000
     20 H5           2.0810     1.1920    -1.5610 h1         1 MTS       0.077700
     21 H61          2.0140    -0.0480    -3.6440 hc         1 MTS       0.066200
     22 H62          1.1730    -1.3900    -2.9050 hc         1 MTS       0.066200
     23 H7          -0.3220     0.0250    -4.2850 h1         1 MTS       0.104700
     24 HN31         0.4010     1.7930     4.7100 hn         1 MTS       0.480000
     25 HN32        -0.7250     2.2510     3.5610 hn         1 MTS       0.480000
     26 HN4          2.8300    -1.5710    -1.0890 hn         1 MTS       0.424000
     27 H151        -0.9500     2.3000    -3.6260 hc         1 MTS       0.053700
     28 H152         0.1160     2.2690    -2.2200 hc         1 MTS       0.053700
     29 H153         0.7950     2.2440    -3.8430 hc         1 MTS       0.053700
     30 H181         5.0350    -0.8110    -1.4300 h1         1 MTS       0.034700
     31 H182         4.1290    -0.4940    -2.9100 h1         1 MTS       0.034700
     32 H183         4.4140     0.8050    -1.7490 h1         1 MTS       0.034700
@<TRIPOS>BOND
     1     1     2 1   
     2     1     9 1   
     3     2     3 2   
     4     2    10 1   
     5     3     4 1   
     6     3    19 1   
     7     4     5 1   
     8     4     9 2   
     9     5     6 1   
    10     5    14 1   
    11     5    20 1   
    12     6     7 1   
    13     6    21 1   
    14     6    22 1   
    15     7     8 1   
    16     7    15 1   
    17     7    23 1   
    18     8     9 1   
    19     8    16 2   
    20     8    17 2   
    21    10    11 2   
    22    10    12 2   
    23    10    13 1   
    24    13    24 1   
    25    13    25 1   
    26    14    18 1   
    27    14    26 1   
    28    15    27 1   
    29    15    28 1   
    30    15    29 1   
    31    18    30 1   
    32    18    31 1   
    33    18    32 1   
@<TRIPOS>SUBSTRUCTURE
     1 MTS         1 TEMP              0 ****  ****    0 ROOT
