@<TRIPOS>MOLECULE
MTW
   43    46     1     0     0
SMALL
No Charge or Current Charge


@<TRIPOS>ATOM
      1 C           -2.6650    -2.8710     0.2290 cc         1 MTW       0.414400
      2 N1          -1.7460    -3.6010     0.8370 nd         1 MTW      -0.695000
      3 C1          -0.6580    -3.5650    -0.0190 cd         1 MTW       0.518900
      4 N2          -0.8610    -2.8540    -1.1220 nc         1 MTW      -0.549800
      5 N           -2.1380    -2.4160    -0.9550 na         1 MTW      -0.063700
      6 C2          -2.8140    -1.5790    -1.9630 c3         1 MTW       0.137900
      7 C3          -3.0090    -0.1280    -1.5260 ca         1 MTW      -0.131300
      8 C4          -1.9460     0.5950    -0.9470 ca         1 MTW      -0.023000
      9 C17         -4.2550     0.5000    -1.7050 ca         1 MTW      -0.068000
     10 C18         -4.4370     1.8290    -1.2960 ca         1 MTW      -0.121000
     11 C6          -3.3790     2.5450    -0.7140 ca         1 MTW      -0.070000
     12 C5          -2.1110     1.9410    -0.5410 ca         1 MTW      -0.162900
     13 C7          -0.9710     2.6830     0.1000 ce         1 MTW       0.542900
     14 N3           0.1010     2.0430     0.4510 nf         1 MTW      -0.735000
     15 C8          -1.0450     4.1840     0.2370 c6         1 MTW      -0.292000
     16 C9           0.2790     4.7940     0.5990 c2         1 MTW       0.453200
     17 N4           1.3190     4.0810     0.9240 nf         1 MTW      -0.627000
     18 C10          1.2360     2.6960     0.9120 cf         1 MTW       0.815300
     19 N5           2.2590     2.0180     1.3280 ne         1 MTW      -0.517100
     20 C11          2.2730     0.6110     1.4040 ca         1 MTW       0.137400
     21 C14          2.5540    -0.1610     0.2610 ca         1 MTW      -0.038000
     22 C12          2.0080    -0.0280     2.6280 ca         1 MTW      -0.063000
     23 C13          2.0220    -1.4300     2.7100 ca         1 MTW      -0.116000
     24 C16          2.3010    -2.2040     1.5700 ca         1 MTW      -0.054000
     25 C15          2.5680    -1.5750     0.3300 ca         1 MTW      -0.175200
     26 N6           2.8600    -2.3910    -0.8910 no         1 MTW       0.693200
     27 O2           3.1210    -1.7960    -1.9450 o          1 MTW      -0.401000
     28 O1           2.8420    -3.6250    -0.7890 o          1 MTW      -0.401000
     29 H           -3.6700    -2.6460     0.5670 h5         1 MTW       0.063100
     30 H1           0.2670    -4.0840     0.2070 h5         1 MTW       0.064100
     31 H2C1        -2.2240    -1.5950    -2.8890 h1         1 MTW       0.075200
     32 H2C2        -3.7860    -2.0330    -2.1890 h1         1 MTW       0.075200
     33 H4          -0.9830     0.1020    -0.8200 ha         1 MTW       0.153000
     34 H17         -5.0850    -0.0420    -2.1540 ha         1 MTW       0.116000
     35 H18         -5.4060     2.3070    -1.4290 ha         1 MTW       0.123000
     36 H6          -3.5600     3.5700    -0.3980 ha         1 MTW       0.115000
     37 H8C1        -1.3990     4.6270    -0.7020 hc         1 MTW       0.094200
     38 H8C2        -1.7730     4.4410     1.0160 hc         1 MTW       0.094200
     39 H9           0.3420     5.8790     0.6010 h4         1 MTW       0.037800
     40 H14          2.7560     0.3510    -0.6770 ha         1 MTW       0.163000
     41 H12          1.7920     0.5650     3.5130 ha         1 MTW       0.132000
     42 H13          1.8170    -1.9190     3.6610 ha         1 MTW       0.135000
     43 H16          2.3090    -3.2890     1.6610 ha         1 MTW       0.150000
@<TRIPOS>BOND
     1     1     2 2   
     2     1     5 1   
     3     1    29 1   
     4     2     3 1   
     5     3     4 2   
     6     3    30 1   
     7     4     5 1   
     8     5     6 1   
     9     6     7 1   
    10     6    31 1   
    11     6    32 1   
    12     7     8 ar  
    13     7     9 ar  
    14     8    12 ar  
    15     8    33 1   
    16     9    10 ar  
    17     9    34 1   
    18    10    11 ar  
    19    10    35 1   
    20    11    12 ar  
    21    11    36 1   
    22    12    13 1   
    23    13    14 2   
    24    13    15 1   
    25    14    18 1   
    26    15    16 1   
    27    15    37 1   
    28    15    38 1   
    29    16    17 2   
    30    16    39 1   
    31    17    18 1   
    32    18    19 2   
    33    19    20 1   
    34    20    21 ar  
    35    20    22 ar  
    36    21    25 ar  
    37    21    40 1   
    38    22    23 ar  
    39    22    41 1   
    40    23    24 ar  
    41    23    42 1   
    42    24    25 ar  
    43    24    43 1   
    44    25    26 1   
    45    26    27 1   
    46    26    28 1   
@<TRIPOS>SUBSTRUCTURE
     1 MTW         1 TEMP              0 ****  ****    0 ROOT
