@<TRIPOS>MOLECULE
MTW
   43    46     1     0     0
SMALL
bcc


@<TRIPOS>ATOM
      1 C           -4.0140    -3.0860     0.5280 cc         1 MTW       0.414400
      2 N1          -3.7150    -3.5020     1.7380 nd         1 MTW      -0.695000
      3 C1          -2.4410    -3.0810     1.8910 cd         1 MTW       0.518900
      4 N2          -1.9510    -2.4420     0.8560 nc         1 MTW      -0.549800
      5 N           -2.9670    -2.4570    -0.0110 na         1 MTW      -0.034400
      6 C2          -2.8770    -1.7810    -1.2910 c3         1 MTW       0.108600
      7 C3          -3.0240    -0.2900    -1.1410 ca         1 MTW      -0.131300
      8 C4          -1.9540     0.4660    -0.6950 ca         1 MTW      -0.041000
      9 C17         -4.2360     0.3400    -1.4100 ca         1 MTW      -0.086000
     10 C18         -4.3720     1.7080    -1.2250 ca         1 MTW      -0.139000
     11 C6          -3.3020     2.4590    -0.7620 ca         1 MTW      -0.088000
     12 C5          -2.0790     1.8420    -0.4950 ca         1 MTW      -0.162900
     13 C7          -0.9260     2.5950     0.0220 ce         1 MTW       0.542900
     14 N3           0.1840     1.9730     0.1460 nf         1 MTW      -0.735000
     15 C8          -1.0760     4.0280     0.4050 c6         1 MTW      -0.292000
     16 C9           0.2140     4.6040     0.8660 c2         1 MTW       0.453200
     17 N4           1.3030     3.9640     0.9960 nf         1 MTW      -0.627000
     18 C10          1.2920     2.6010     0.6830 cf         1 MTW       0.815300
     19 N5           2.3800     1.9680     0.8990 ne         1 MTW      -0.517100
     20 C11          2.4840     0.6020     0.6610 ca         1 MTW       0.137400
     21 C14          3.6210     0.1640    -0.0140 ca         1 MTW      -0.056000
     22 C12          1.5600    -0.3500     1.1100 ca         1 MTW      -0.081000
     23 C13          1.7530    -1.6970     0.8520 ca         1 MTW      -0.134000
     24 C16          2.8640    -2.1370     0.1510 ca         1 MTW      -0.072000
     25 C15          3.7840    -1.1880    -0.2690 ca         1 MTW      -0.175200
     26 N6           4.9650    -1.6240    -1.0010 no         1 MTW       0.313200
     27 O2           5.7630    -0.7850    -1.3490 o          1 MTW      -0.211000
     28 O1           5.0910    -2.8050    -1.2270 o          1 MTW      -0.211000
     29 H           -4.9520    -3.2200     0.0120 h5         1 MTW       0.063100
     30 H1          -1.8590    -3.2560     2.7840 h5         1 MTW       0.064100
     31 H2C1        -1.9170    -2.0400    -1.7360 h1         1 MTW       0.075200
     32 H2C2        -3.6580    -2.1890    -1.9310 h1         1 MTW       0.075200
     33 H4          -1.0060    -0.0120    -0.4840 ha         1 MTW       0.171000
     34 H17         -5.0800    -0.2380    -1.7660 ha         1 MTW       0.134000
     35 H18         -5.3150     2.1910    -1.4400 ha         1 MTW       0.141000
     36 H6          -3.4330     3.5230    -0.6150 ha         1 MTW       0.133000
     37 H8C1        -1.4490     4.6220    -0.4360 hc         1 MTW       0.094200
     38 H8C2        -1.8290     4.1490     1.1920 hc         1 MTW       0.094200
     39 H9           0.2190     5.6620     1.1130 h4         1 MTW       0.037800
     40 H14          4.3530     0.8910    -0.3380 ha         1 MTW       0.181000
     41 H12          0.6880    -0.0400     1.6680 ha         1 MTW       0.150000
     42 H13          1.0160    -2.4120     1.1900 ha         1 MTW       0.153000
     43 H16          3.0020    -3.1880    -0.0520 ha         1 MTW       0.168000
@<TRIPOS>BOND
     1     1     2 2   
     2     1     5 1   
     3     1    29 1   
     4     2     3 1   
     5     3     4 2   
     6     3    30 1   
     7     4     5 1   
     8     5     6 1   
     9     6     7 1   
    10     6    31 1   
    11     6    32 1   
    12     7     8 ar  
    13     7     9 ar  
    14     8    12 ar  
    15     8    33 1   
    16     9    10 ar  
    17     9    34 1   
    18    10    11 ar  
    19    10    35 1   
    20    11    12 ar  
    21    11    36 1   
    22    12    13 1   
    23    13    14 2   
    24    13    15 1   
    25    14    18 1   
    26    15    16 1   
    27    15    37 1   
    28    15    38 1   
    29    16    17 2   
    30    16    39 1   
    31    17    18 1   
    32    18    19 2   
    33    19    20 1   
    34    20    21 ar  
    35    20    22 ar  
    36    21    25 ar  
    37    21    40 1   
    38    22    23 ar  
    39    22    41 1   
    40    23    24 ar  
    41    23    42 1   
    42    24    25 ar  
    43    24    43 1   
    44    25    26 1   
    45    26    27 1   
    46    26    28 1   
@<TRIPOS>SUBSTRUCTURE
     1 MTW         1 TEMP              0 ****  ****    0 ROOT
