@<TRIPOS>MOLECULE
MTX
   53    55     1     0     0
SMALL
No Charge or Current Charge


@<TRIPOS>ATOM
      1 N1          16.8360    64.9230    45.2180 nb         1 MTX      -0.271000
      2 C2          15.9940    65.3060    46.1850 ca         1 MTX       0.443900
      3 NA2         14.7720    64.7350    46.1770 nv         1 MTX      -1.074900
      4 N3          16.2120    66.1800    47.1630 nb         1 MTX      -0.362000
      5 C4          17.4250    66.7360    47.1660 ca         1 MTX       0.463900
      6 NA4         17.6210    67.6280    48.1790 nv         1 MTX      -1.062900
      7 C4A         18.4270    66.4350    46.1970 ca         1 MTX       0.035000
      8 N5          19.6590    67.0290    46.2130 nb         1 MTX      -0.623000
      9 C6          20.5330    66.6700    45.2380 ca         1 MTX       0.241300
     10 C7          20.1800    65.7180    44.2630 ca         1 MTX       0.110900
     11 N8          18.9660    65.1330    44.2410 nb         1 MTX      -0.114000
     12 C8A         18.0700    65.4750    45.1950 ca         1 MTX       0.112000
     13 C9          21.9240    67.3260    45.2350 c3         1 MTX       0.201500
     14 N10         22.4460    67.7700    43.9060 nh         1 MTX      -0.849400
     15 CM          23.8430    67.4100    43.5730 c3         1 MTX       0.231100
     16 C11         19.9140    69.7120    41.0760 ca         1 MTX      -0.140600
     17 C12         20.9140    68.8080    40.6540 ca         1 MTX      -0.040000
     18 C13         21.7510    68.1730    41.5880 ca         1 MTX      -0.203500
     19 C14         21.6110    68.4210    42.9650 ca         1 MTX       0.296000
     20 C15         20.6170    69.3190    43.3890 ca         1 MTX      -0.203500
     21 C16         19.7760    69.9600    42.4620 ca         1 MTX      -0.040000
     22 O           19.1500    70.1460    38.8430 o          1 MTX      -0.608100
     23 N           18.0860    71.2680    40.5120 ns         1 MTX      -0.447900
     24 CA          17.0870    72.0000    39.6910 c3         1 MTX      -0.036300
     25 CT          17.1590    73.5250    40.0050 c          1 MTX       0.710000
     26 O1          17.0760    73.8870    41.1720 o          1 MTX      -0.749000
     27 O2          17.3780    74.2970    39.0830 o          1 MTX      -0.749000
     28 CB          15.6540    71.4470    39.9150 c3         1 MTX      -0.040400
     29 CG          15.3520    70.0790    39.2470 c3         1 MTX      -0.196400
     30 CD          15.0890    70.2480    37.7350 c          1 MTX       0.723000
     31 OE1         16.0250    70.1350    36.9590 o          1 MTX      -0.757000
     32 OE2         13.9520    70.5190    37.3770 o          1 MTX      -0.757000
     33 HN21        14.2050    64.8170    47.0180 hn         1 MTX       0.499500
     34 HN22        14.6350    63.8990    45.6150 hn         1 MTX       0.499500
     35 HN41        18.4400    68.2260    48.0920 hn         1 MTX       0.508000
     36 HN42        16.8020    68.0370    48.6200 hn         1 MTX       0.508000
     37 H7          20.8770    65.4220    43.4820 h4         1 MTX       0.042100
     38 H91         21.9080    68.1870    45.9170 h1         1 MTX       0.056700
     39 H92         22.6170    66.5980    45.6780 h1         1 MTX       0.056700
     40 HM1         24.2740    68.1400    42.8750 h1         1 MTX       0.026033
     41 HM2         24.4680    67.4040    44.4760 h1         1 MTX       0.026033
     42 HM3         23.8830    66.4140    43.1120 h1         1 MTX       0.026033
     43 H12         21.0460    68.5900    39.5960 ha         1 MTX       0.135000
     44 H13         22.5000    67.4740    41.2300 ha         1 MTX       0.096000
     45 H15         20.4930    69.5350    44.4460 ha         1 MTX       0.096000
     46 H16         19.0230    70.6450    42.8430 ha         1 MTX       0.135000
     47 HN          18.0800    71.4370    41.5090 hn         1 MTX       0.312500
     48 HA          17.3420    71.8960    38.6290 h1         1 MTX       0.096700
     49 HB1         15.4760    71.3640    40.9950 hc         1 MTX       0.023200
     50 HB2         14.9260    72.1810    39.5460 hc         1 MTX       0.023200
     51 HG1         16.2210    69.4350    39.4320 hc         1 MTX       0.001200
     52 HG2         14.4390    69.7230    39.7430 hc         1 MTX       0.001200
     53 C           19.0300    70.3770    40.0390 c          1 MTX       0.586700
@<TRIPOS>BOND
     1     1     2 ar  
     2     1    12 ar  
     3     2     3 1   
     4     2     4 ar  
     5     3    33 1   
     6     3    34 1   
     7     4     5 ar  
     8     5     6 1   
     9     5     7 ar  
    10     6    35 1   
    11     6    36 1   
    12     7     8 ar  
    13     7    12 ar  
    14     8     9 ar  
    15     9    10 ar  
    16     9    13 1   
    17    10    11 ar  
    18    10    37 1   
    19    11    12 ar  
    20    13    14 1   
    21    13    38 1   
    22    13    39 1   
    23    14    15 1   
    24    14    19 1   
    25    15    40 1   
    26    15    41 1   
    27    15    42 1   
    28    16    17 ar  
    29    16    21 ar  
    30    16    53 1   
    31    17    18 ar  
    32    17    43 1   
    33    18    19 ar  
    34    18    44 1   
    35    19    20 ar  
    36    20    21 ar  
    37    20    45 1   
    38    21    46 1   
    39    22    53 2   
    40    23    24 1   
    41    23    47 1   
    42    23    53 1   
    43    24    25 1   
    44    24    28 1   
    45    24    48 1   
    46    25    26 1   
    47    25    27 1   
    48    28    29 1   
    49    28    49 1   
    50    28    50 1   
    51    29    30 1   
    52    29    51 1   
    53    29    52 1   
    54    30    31 1   
    55    30    32 1   
@<TRIPOS>SUBSTRUCTURE
     1 MTX         1 TEMP              0 ****  ****    0 ROOT
