@<TRIPOS>MOLECULE
MTX
   53    55     1     0     0
SMALL
bcc


@<TRIPOS>ATOM
      1 N1          17.0640    64.5870    46.0760 nb         1 MTX      -0.797000
      2 C2          16.4290    64.8740    47.2020 ca         1 MTX       0.969900
      3 NA2         15.3160    64.1810    47.4820 nv         1 MTX      -0.964500
      4 N3          16.7660    65.8100    48.1190 nb         1 MTX      -0.888000
      5 C4          17.8380    66.5330    47.8910 ca         1 MTX       0.726900
      6 NA4         18.2200    67.4620    48.7590 nv         1 MTX      -0.952500
      7 C4A         18.6170    66.3210    46.6940 ca         1 MTX       0.035000
      8 N5          19.7000    67.0530    46.4470 nb         1 MTX      -0.623000
      9 C6          20.3650    66.8080    45.3420 ca         1 MTX       0.241300
     10 C7          19.9160    65.7980    44.4650 ca         1 MTX       0.373900
     11 N8          18.8490    65.0730    44.6920 nb         1 MTX      -0.640000
     12 C8A         18.1600    65.3160    45.8250 ca         1 MTX       0.638000
     13 C9          21.6130    67.6180    45.0760 c3         1 MTX       0.201500
     14 N10         21.9830    67.6990    43.6870 nh         1 MTX      -0.711000
     15 CM          23.0580    66.8680    43.1930 c3         1 MTX       0.231100
     16 C11         19.6660    69.9590    40.9860 ca         1 MTX      -0.140600
     17 C12         20.7320    69.1690    40.5560 ca         1 MTX      -0.058000
     18 C13         21.4900    68.4190    41.4320 ca         1 MTX      -0.221500
     19 C14         21.2220    68.4260    42.8130 ca         1 MTX       0.157600
     20 C15         20.1420    69.2180    43.2480 ca         1 MTX      -0.221500
     21 C16         19.3940    69.9590    42.3540 ca         1 MTX      -0.058000
     22 O           19.2840    70.7470    38.7920 o          1 MTX      -0.608100
     23 N           17.8080    71.3780    40.3820 ns         1 MTX      -0.514900
     24 CA          16.9840    72.2550    39.5770 c3         1 MTX      -0.036300
     25 CT          16.5890    73.4990    40.4130 c          1 MTX       0.920600
     26 O1          16.7120    73.4080    41.6510 o          1 MTX      -0.854300
     27 O2          16.1450    74.4650    39.7680 o          1 MTX      -0.854300
     28 CB          15.7070    71.5510    39.0950 c3         1 MTX      -0.040400
     29 CG          15.9320    70.3580    38.1810 c3         1 MTX      -0.196400
     30 CD          16.4940    70.6750    36.7800 c          1 MTX       0.933600
     31 OE1         17.0290    69.7220    36.1750 o          1 MTX      -0.862300
     32 OE2         16.3340    71.8330    36.3400 o          1 MTX      -0.862300
     33 HN21        14.8540    64.3030    48.3650 hn         1 MTX       0.444300
     34 HN22        15.0400    63.4110    46.8980 hn         1 MTX       0.444300
     35 HN41        19.0370    68.0210    48.5810 hn         1 MTX       0.452800
     36 HN42        17.6850    67.6330    49.5940 hn         1 MTX       0.452800
     37 H7          20.4580    65.5880    43.5490 h4         1 MTX       0.042100
     38 H91         21.4820    68.6120    45.5120 h1         1 MTX       0.056700
     39 H92         22.4460    67.1690    45.6200 h1         1 MTX       0.056700
     40 HM1         23.7990    67.4530    42.6440 h1         1 MTX       0.026033
     41 HM2         23.5630    66.4030    44.0340 h1         1 MTX       0.026033
     42 HM3         22.7030    66.0690    42.5340 h1         1 MTX       0.026033
     43 H12         20.9740    69.1360    39.5020 ha         1 MTX       0.153000
     44 H13         22.2980    67.8240    41.0290 ha         1 MTX       0.114000
     45 H15         19.8720    69.2680    44.2930 ha         1 MTX       0.114000
     46 H16         18.5870    70.5470    42.7730 ha         1 MTX       0.153000
     47 HN          17.6030    71.4450    41.3670 hn         1 MTX       0.312500
     48 HA          17.5570    72.5760    38.7070 h1         1 MTX       0.096700
     49 HB1         15.1430    71.2310    39.9790 hc         1 MTX       0.023200
     50 HB2         15.0860    72.2860    38.5830 hc         1 MTX       0.023200
     51 HG1         16.5660    69.6120    38.6680 hc         1 MTX       0.001200
     52 HG2         14.9680    69.8550    38.0320 hc         1 MTX       0.001200
     53 C           18.9030    70.7330    39.9610 c          1 MTX       0.653700
@<TRIPOS>BOND
     1     1     2 ar  
     2     1    12 ar  
     3     2     3 1   
     4     2     4 ar  
     5     3    33 1   
     6     3    34 1   
     7     4     5 ar  
     8     5     6 1   
     9     5     7 ar  
    10     6    35 1   
    11     6    36 1   
    12     7     8 ar  
    13     7    12 ar  
    14     8     9 ar  
    15     9    10 ar  
    16     9    13 1   
    17    10    11 ar  
    18    10    37 1   
    19    11    12 ar  
    20    13    14 1   
    21    13    38 1   
    22    13    39 1   
    23    14    15 1   
    24    14    19 1   
    25    15    40 1   
    26    15    41 1   
    27    15    42 1   
    28    16    17 ar  
    29    16    21 ar  
    30    16    53 1   
    31    17    18 ar  
    32    17    43 1   
    33    18    19 ar  
    34    18    44 1   
    35    19    20 ar  
    36    20    21 ar  
    37    20    45 1   
    38    21    46 1   
    39    22    53 2   
    40    23    24 1   
    41    23    47 1   
    42    23    53 1   
    43    24    25 1   
    44    24    28 1   
    45    24    48 1   
    46    25    26 1   
    47    25    27 1   
    48    28    29 1   
    49    28    49 1   
    50    28    50 1   
    51    29    30 1   
    52    29    51 1   
    53    29    52 1   
    54    30    31 1   
    55    30    32 1   
@<TRIPOS>SUBSTRUCTURE
     1 MTX         1 TEMP              0 ****  ****    0 ROOT
