@<TRIPOS>MOLECULE
MTY
   23    23     1     0     0
SMALL
No Charge or Current Charge


@<TRIPOS>ATOM
      1 N           73.0810    53.8650    30.8610 n8         1 MTY      -0.862800
      2 CA          72.6910    54.0380    32.3110 c3         1 MTY       0.021500
      3 CB          72.7550    55.5390    32.7020 c3         1 MTY      -0.020100
      4 CG          72.7040    55.7550    34.2110 ca         1 MTY       0.000700
      5 CD1         71.5360    56.2500    34.8240 ca         1 MTY      -0.132000
      6 CE1         71.4920    56.4490    36.2160 ca         1 MTY      -0.098000
      7 CD2         73.8280    55.4640    35.0080 ca         1 MTY      -0.160000
      8 CE2         73.7840    55.6630    36.3960 ca         1 MTY       0.119100
      9 CZ          72.6190    56.1540    37.0020 ca         1 MTY      -0.241000
     10 OH          74.8750    55.3780    37.1570 oh         1 MTY      -0.510100
     11 C           71.3200    53.3710    32.7760 c          1 MTY       0.928600
     12 O           71.3680    52.3010    33.3780 o          1 MTY      -0.828300
     13 OXT         70.2550    53.8950    32.4590 o          1 MTY      -0.828300
     14 H           73.1720    52.8650    30.6530 hn         1 MTY       0.307300
     15 H2          74.0200    54.2480    30.7130 hn         1 MTY       0.307300
     16 HA          73.4840    53.5330    32.8790 h1         1 MTY       0.006700
     17 HB2         73.6860    55.9720    32.3150 hc         1 MTY       0.037700
     18 HB3         71.9420    56.0820    32.2050 hc         1 MTY       0.037700
     19 HD1         70.6580    56.4780    34.2220 ha         1 MTY       0.150000
     20 HE1         70.5860    56.8310    36.6820 ha         1 MTY       0.114000
     21 HD2         74.7370    55.0830    34.5480 ha         1 MTY       0.133000
     22 HZ          72.5800    56.3100    38.0770 ha         1 MTY       0.108000
     23 HH          74.6560    55.5780    38.0900 ho         1 MTY       0.408000
@<TRIPOS>BOND
     1     1     2 1   
     2     1    14 1   
     3     1    15 1   
     4     2     3 1   
     5     2    11 1   
     6     2    16 1   
     7     3     4 1   
     8     3    17 1   
     9     3    18 1   
    10     4     5 ar  
    11     4     7 ar  
    12     5     6 ar  
    13     5    19 1   
    14     6     9 ar  
    15     6    20 1   
    16     7     8 ar  
    17     7    21 1   
    18     8     9 ar  
    19     8    10 1   
    20     9    22 1   
    21    10    23 1   
    22    11    12 1   
    23    11    13 1   
@<TRIPOS>SUBSTRUCTURE
     1 MTY         1 TEMP              0 ****  ****    0 ROOT
