@<TRIPOS>MOLECULE
MTY
   23    23     1     0     0
SMALL
bcc


@<TRIPOS>ATOM
      1 N           72.9110    53.9290    30.8970 n8         1 MTY      -0.862800
      2 CA          72.7560    54.0260    32.3460 c3         1 MTY       0.021500
      3 CB          72.8500    55.5070    32.7350 c3         1 MTY      -0.020100
      4 CG          72.7450    55.7380    34.2150 ca         1 MTY       0.000700
      5 CD1         71.5520    56.1720    34.7920 ca         1 MTY      -0.132000
      6 CE1         71.4710    56.3630    36.1630 ca         1 MTY      -0.098000
      7 CD2         73.8430    55.5010    35.0360 ca         1 MTY      -0.160000
      8 CE2         73.7600    55.6860    36.4140 ca         1 MTY       0.119100
      9 CZ          72.5660    56.1240    36.9820 ca         1 MTY      -0.241000
     10 OH          74.8650    55.4320    37.1470 oh         1 MTY      -0.510100
     11 C           71.3930    53.4380    32.7940 c          1 MTY       0.928600
     12 O           71.4310    52.5660    33.6840 o          1 MTY      -0.828300
     13 OXT         70.3750    53.8960    32.2380 o          1 MTY      -0.828300
     14 H           72.8460    52.9590    30.6120 hn         1 MTY       0.307300
     15 H2          73.8500    54.2190    30.6490 hn         1 MTY       0.307300
     16 HA          73.5490    53.4890    32.8870 h1         1 MTY       0.006700
     17 HB2         73.8050    55.9020    32.3730 hc         1 MTY       0.037700
     18 HB3         72.0620    56.0530    32.2120 hc         1 MTY       0.037700
     19 HD1         70.6890    56.3550    34.1650 ha         1 MTY       0.150000
     20 HE1         70.5450    56.7050    36.6070 ha         1 MTY       0.114000
     21 HD2         74.7810    55.1680    34.6030 ha         1 MTY       0.133000
     22 HZ          72.4920    56.2800    38.0530 ha         1 MTY       0.108000
     23 HH          74.6910    55.5930    38.0820 ho         1 MTY       0.408000
@<TRIPOS>BOND
     1     1     2 1   
     2     1    14 1   
     3     1    15 1   
     4     2     3 1   
     5     2    11 1   
     6     2    16 1   
     7     3     4 1   
     8     3    17 1   
     9     3    18 1   
    10     4     5 ar  
    11     4     7 ar  
    12     5     6 ar  
    13     5    19 1   
    14     6     9 ar  
    15     6    20 1   
    16     7     8 ar  
    17     7    21 1   
    18     8     9 ar  
    19     8    10 1   
    20     9    22 1   
    21    10    23 1   
    22    11    12 1   
    23    11    13 1   
@<TRIPOS>SUBSTRUCTURE
     1 MTY         1 TEMP              0 ****  ****    0 ROOT
