@<TRIPOS>MOLECULE
MTZ
   46    49     1     0     0
SMALL
No Charge or Current Charge


@<TRIPOS>ATOM
      1 C14         -6.5150     1.1640    -0.0850 c6         1 MTZ       0.160300
      2 C15         -7.8860     0.7840     0.5500 c6         1 MTZ       0.147100
      3 O           -8.4590    -0.3680    -0.1120 os         1 MTZ      -0.445000
      4 C16         -7.6060    -1.5340    -0.0280 c6         1 MTZ       0.147100
      5 C17         -6.2220    -1.2580    -0.6900 c6         1 MTZ       0.160300
      6 N5          -5.5790    -0.0080    -0.1650 nh         1 MTZ      -0.783400
      7 C11         -4.1830     0.1990    -0.2760 ca         1 MTZ       0.294000
      8 C12         -3.5190     1.0230     0.6530 ca         1 MTZ      -0.164000
      9 C13         -2.1320     1.2380     0.5610 ca         1 MTZ      -0.065500
     10 C10         -3.4300    -0.4100    -1.3010 ca         1 MTZ      -0.164000
     11 C9          -2.0430    -0.1950    -1.3960 ca         1 MTZ      -0.065500
     12 C8          -1.3870     0.6270    -0.4630 ca         1 MTZ       0.113400
     13 N4           0.0000     0.8460    -0.5610 ne         1 MTZ      -0.525100
     14 C5           0.8860     0.0960     0.0140 cf         1 MTZ       0.803300
     15 N2           2.2180     0.4200    -0.1700 nf         1 MTZ      -0.674000
     16 N3           0.5070    -0.9830     0.8070 nf         1 MTZ      -0.694000
     17 C6           1.4140    -1.8060     1.2430 c2         1 MTZ       0.457200
     18 C7           2.8660    -1.6680     0.8920 c6         1 MTZ      -0.291000
     19 C4           3.1810    -0.3660     0.1900 ce         1 MTZ       0.563900
     20 C3           4.6020    -0.0350     0.0820 cc         1 MTZ      -0.353900
     21 S            5.8550    -1.2400     0.3250 ss         1 MTZ      -0.124400
     22 C1           5.1750     1.1890    -0.2210 cd         1 MTZ       0.439300
     23 C2           4.4580     2.4810    -0.4970 c3         1 MTZ      -0.131400
     24 N1           6.5630     1.2030    -0.2650 nd         1 MTZ      -0.761000
     25 C            7.0050     0.0140     0.0070 cc         1 MTZ       0.752300
     26 N            8.3230    -0.1610    -0.0040 nv         1 MTZ      -1.073900
     27 H141        -6.0760     1.9780     0.5090 h1         1 MTZ       0.047450
     28 H142        -6.6930     1.5640    -1.0940 h1         1 MTZ       0.047450
     29 H151        -8.5820     1.6300     0.4670 h1         1 MTZ       0.052450
     30 H152        -7.7530     0.5570     1.6180 h1         1 MTZ       0.052450
     31 H161        -8.0980    -2.3780    -0.5320 h1         1 MTZ       0.052450
     32 H162        -7.4670    -1.8040     1.0290 h1         1 MTZ       0.052450
     33 H171        -6.3620    -1.1800    -1.7780 h1         1 MTZ       0.047450
     34 H172        -5.5730    -2.1260    -0.5040 h1         1 MTZ       0.047450
     35 H12         -4.0750     1.4900     1.4600 ha         1 MTZ       0.112000
     36 H13         -1.6330     1.8750     1.2870 ha         1 MTZ       0.119000
     37 H10         -3.9150    -1.0420    -2.0390 ha         1 MTZ       0.112000
     38 H9          -1.4760    -0.6670    -2.1950 ha         1 MTZ       0.119000
     39 H6           1.1300    -2.6490     1.8690 h4         1 MTZ       0.025800
     40 H7C1         3.1490    -2.5070     0.2450 hc         1 MTZ       0.088700
     41 H7C2         3.4570    -1.7520     1.8120 hc         1 MTZ       0.088700
     42 H2C1         3.8520     2.4030    -1.4060 hc         1 MTZ       0.066033
     43 H2C2         3.7950     2.7440     0.3350 hc         1 MTZ       0.066033
     44 H2C3         5.1600     3.3110    -0.6350 hc         1 MTZ       0.066033
     45 HN1          8.8230     0.5810    -0.4770 hn         1 MTZ       0.507000
     46 HN2          8.6500    -1.1020    -0.1890 hn         1 MTZ       0.507000
@<TRIPOS>BOND
     1     1     2 1   
     2     1     6 1   
     3     1    27 1   
     4     1    28 1   
     5     2     3 1   
     6     2    29 1   
     7     2    30 1   
     8     3     4 1   
     9     4     5 1   
    10     4    31 1   
    11     4    32 1   
    12     5     6 1   
    13     5    33 1   
    14     5    34 1   
    15     6     7 1   
    16     7     8 ar  
    17     7    10 ar  
    18     8     9 ar  
    19     8    35 1   
    20     9    12 ar  
    21     9    36 1   
    22    10    11 ar  
    23    10    37 1   
    24    11    12 ar  
    25    11    38 1   
    26    12    13 1   
    27    13    14 2   
    28    14    15 1   
    29    14    16 1   
    30    15    19 2   
    31    16    17 2   
    32    17    18 1   
    33    17    39 1   
    34    18    19 1   
    35    18    40 1   
    36    18    41 1   
    37    19    20 1   
    38    20    21 1   
    39    20    22 2   
    40    21    25 1   
    41    22    23 1   
    42    22    24 1   
    43    23    42 1   
    44    23    43 1   
    45    23    44 1   
    46    24    25 2   
    47    25    26 1   
    48    26    45 1   
    49    26    46 1   
@<TRIPOS>SUBSTRUCTURE
     1 MTZ         1 TEMP              0 ****  ****    0 ROOT
