@<TRIPOS>MOLECULE
MTZ
   46    49     1     0     0
SMALL
abcg2


@<TRIPOS>ATOM
      1 C14         -6.4130     1.1800    -0.2170 c6         1 MTZ       0.160300
      2 C15         -7.8500     0.8960     0.1740 c6         1 MTZ       0.147100
      3 O           -8.3510    -0.2520    -0.4700 os         1 MTZ      -0.445000
      4 C16         -7.5630    -1.3710    -0.1410 c6         1 MTZ       0.147100
      5 C17         -6.1110    -1.1870    -0.5420 c6         1 MTZ       0.160300
      6 N5          -5.5720     0.0210     0.0520 nh         1 MTZ      -0.783400
      7 C11         -4.1910     0.2040     0.0130 ca         1 MTZ       0.294000
      8 C12         -3.5990     1.3400     0.5880 ca         1 MTZ      -0.164000
      9 C13         -2.2290     1.5190     0.5750 ca         1 MTZ      -0.065500
     10 C10         -3.3270    -0.7290    -0.5740 ca         1 MTZ      -0.164000
     11 C9          -1.9500    -0.5620    -0.5510 ca         1 MTZ      -0.065500
     12 C8          -1.3650     0.5630     0.0320 ca         1 MTZ       0.113400
     13 N4          -0.0050     0.8520     0.0280 ne         1 MTZ      -0.525100
     14 C5           0.8990    -0.0180     0.2700 cf         1 MTZ       0.803300
     15 N2           2.2070     0.4120     0.1550 nf         1 MTZ      -0.674000
     16 N3           0.5770    -1.3150     0.6960 nf         1 MTZ      -0.694000
     17 C6           1.5090    -2.1730     0.7500 c2         1 MTZ       0.457200
     18 C7           2.9230    -1.9140     0.3790 c6         1 MTZ      -0.291000
     19 C4           3.1690    -0.4450     0.1940 ce         1 MTZ       0.563900
     20 C3           4.5240    -0.0030     0.0400 cc         1 MTZ      -0.353900
     21 S            5.8630    -1.1290     0.1250 ss         1 MTZ      -0.124400
     22 C1           5.0200     1.2620    -0.2120 cd         1 MTZ       0.439300
     23 C2           4.2080     2.5020    -0.3680 c3         1 MTZ      -0.131400
     24 N1           6.3630     1.3540    -0.3260 nd         1 MTZ      -0.761000
     25 C            6.9460     0.1890    -0.1730 cc         1 MTZ       0.752300
     26 N            8.2620     0.0080    -0.2360 nv         1 MTZ      -1.073900
     27 H141        -6.0790     2.0410     0.3570 h1         1 MTZ       0.047450
     28 H142        -6.3640     1.4590    -1.2800 h1         1 MTZ       0.047450
     29 H151        -8.4790     1.7400    -0.1150 h1         1 MTZ       0.052450
     30 H152        -7.9150     0.7820     1.2660 h1         1 MTZ       0.052450
     31 H161        -7.9770    -2.2340    -0.6640 h1         1 MTZ       0.052450
     32 H162        -7.6160    -1.5720     0.9380 h1         1 MTZ       0.052450
     33 H171        -6.0240    -1.1750    -1.6400 h1         1 MTZ       0.047450
     34 H172        -5.5590    -2.0560    -0.1810 h1         1 MTZ       0.047450
     35 H12         -4.2060     2.0980     1.0630 ha         1 MTZ       0.112000
     36 H13         -1.8100     2.4160     1.0140 ha         1 MTZ       0.119000
     37 H10         -3.7130    -1.6070    -1.0720 ha         1 MTZ       0.112000
     38 H9          -1.3340    -1.3080    -1.0340 ha         1 MTZ       0.119000
     39 H6           1.2620    -3.1700     1.1050 h4         1 MTZ       0.025800
     40 H7C1         3.1660    -2.4610    -0.5410 hc         1 MTZ       0.088700
     41 H7C2         3.5730    -2.3400     1.1500 hc         1 MTZ       0.088700
     42 H2C1         3.4170     2.3660    -1.1030 hc         1 MTZ       0.066033
     43 H2C2         3.7160     2.7680     0.5670 hc         1 MTZ       0.066033
     44 H2C3         4.8500     3.3260    -0.6730 hc         1 MTZ       0.066033
     45 HN1          8.8600     0.7940    -0.4300 hn         1 MTZ       0.507000
     46 HN2          8.6910    -0.8920    -0.1180 hn         1 MTZ       0.507000
@<TRIPOS>BOND
     1     1     2 1   
     2     1     6 1   
     3     1    27 1   
     4     1    28 1   
     5     2     3 1   
     6     2    29 1   
     7     2    30 1   
     8     3     4 1   
     9     4     5 1   
    10     4    31 1   
    11     4    32 1   
    12     5     6 1   
    13     5    33 1   
    14     5    34 1   
    15     6     7 1   
    16     7     8 ar  
    17     7    10 ar  
    18     8     9 ar  
    19     8    35 1   
    20     9    12 ar  
    21     9    36 1   
    22    10    11 ar  
    23    10    37 1   
    24    11    12 ar  
    25    11    38 1   
    26    12    13 1   
    27    13    14 2   
    28    14    15 1   
    29    14    16 1   
    30    15    19 2   
    31    16    17 2   
    32    17    18 1   
    33    17    39 1   
    34    18    19 1   
    35    18    40 1   
    36    18    41 1   
    37    19    20 1   
    38    20    21 1   
    39    20    22 2   
    40    21    25 1   
    41    22    23 1   
    42    22    24 1   
    43    23    42 1   
    44    23    43 1   
    45    23    44 1   
    46    24    25 2   
    47    25    26 1   
    48    26    45 1   
    49    26    46 1   
@<TRIPOS>SUBSTRUCTURE
     1 MTZ         1 TEMP              0 ****  ****    0 ROOT
