@<TRIPOS>MOLECULE
MU0
   93    97     1     0     0
SMALL
bcc


@<TRIPOS>ATOM
      1 O5           3.8270     0.4260     1.1720 o          1 MU0      -0.559100
      2 C26          3.5460     1.0120     0.1450 c          1 MU0       0.650100
      3 C27          4.0130     0.4830    -1.2180 c5         1 MU0       0.040100
      4 O28          4.8550    -0.6330    -0.9920 os         1 MU0      -0.357900
      5 C30          4.0870    -1.7330    -0.8770 c          1 MU0       0.851600
      6 O30          4.5120    -2.7810    -0.4730 o          1 MU0      -0.567500
      7 N31          2.8300    -1.4320    -1.3200 n          1 MU0      -0.430000
      8 C32          2.8350    -0.1340    -1.9660 c5         1 MU0       0.068000
      9 C33          1.7320    -2.3010    -1.3230 ca         1 MU0       0.086600
     10 C38          0.8080    -2.2320    -2.3630 ca         1 MU0      -0.157000
     11 C37         -0.3110    -3.0550    -2.3560 ca         1 MU0      -0.112000
     12 C36         -0.5170    -3.9530    -1.3180 ca         1 MU0      -0.151000
     13 C35          0.4070    -4.0170    -0.2830 ca         1 MU0      -0.112000
     14 C34          1.5210    -3.1930    -0.2720 ca         1 MU0      -0.157000
     15 N4           2.7490     2.0880     0.0690 ns         1 MU0      -0.577900
     16 C25          2.0250     2.6420     1.1990 c3         1 MU0       0.079700
     17 C29          2.1060     4.1700     1.1670 c3         1 MU0      -0.041100
     18 C4           3.5220     4.6600     1.2890 ca         1 MU0      -0.084300
     19 C9           4.2400     5.0670     0.1680 ca         1 MU0      -0.124000
     20 C8           5.5590     5.4870     0.2800 ca         1 MU0      -0.123000
     21 C5           4.1570     4.6820     2.5300 ca         1 MU0      -0.124000
     22 C6           5.4740     5.1030     2.6470 ca         1 MU0      -0.123000
     23 C7           6.1810     5.5060     1.5210 ca         1 MU0      -0.123000
     24 C24          0.5700     2.1390     1.2120 c3         1 MU0       0.134100
     25 O4          -0.1420     2.5970     0.0850 oh         1 MU0      -0.574800
     26 C23          0.4890     0.6270     1.4020 c3         1 MU0      -0.124400
     27 C12         -0.9360     0.0610     1.4630 c3         1 MU0       0.119700
     28 N3          -1.4530    -0.2640     0.1470 ns         1 MU0      -0.577900
     29 C11         -2.5620     0.2760    -0.3940 c          1 MU0       0.641100
     30 O2          -3.2050     1.1670     0.1330 o          1 MU0      -0.566100
     31 C10         -2.9930    -0.3380    -1.7350 c3         1 MU0       0.060700
     32 C13         -2.8830     0.6630    -2.8960 c3         1 MU0      -0.051700
     33 C14         -1.4130     1.0240    -3.1030 c3         1 MU0      -0.086100
     34 C15         -3.4460     0.0740    -4.1840 c3         1 MU0      -0.086100
     35 N1          -4.2680    -1.0170    -1.5600 n          1 MU0      -0.475800
     36 C2          -4.1540    -2.3680    -1.0230 c6         1 MU0       0.094000
     37 C39         -5.4370    -3.1440    -1.2140 c6         1 MU0      -0.104400
     38 C3          -5.4490    -0.3250    -1.4750 c          1 MU0       0.834500
     39 O1          -5.5690     0.8470    -1.8200 o          1 MU0      -0.662500
     40 N2          -6.5310    -1.0140    -1.0300 ns         1 MU0      -0.601900
     41 C1          -6.5700    -2.3820    -0.5670 c6         1 MU0       0.119000
     42 C22         -0.9590    -1.1800     2.3650 c3         1 MU0      -0.053100
     43 C20         -2.2870    -1.8850     2.4430 ca         1 MU0      -0.076300
     44 C19         -3.4550    -1.1960     2.7680 ca         1 MU0      -0.123500
     45 C18         -4.6660    -1.8630     2.8820 ca         1 MU0      -0.129500
     46 C17         -4.7320    -3.2360     2.6760 ca         1 MU0      -0.137000
     47 C16         -3.5780    -3.9320     2.3470 ca         1 MU0      -0.129500
     48 C21         -2.3690    -3.2570     2.2290 ca         1 MU0      -0.123500
     49 H27          4.5470     1.2350    -1.8000 h1         1 MU0       0.108700
     50 H321         1.8980     0.4000    -1.8130 h1         1 MU0       0.067700
     51 H322         3.0220    -0.2050    -3.0400 h1         1 MU0       0.067700
     52 H38          0.9630    -1.5510    -3.1900 ha         1 MU0       0.147500
     53 H37         -1.0130    -3.0020    -3.1780 ha         1 MU0       0.137000
     54 H36         -1.3840    -4.5990    -1.3170 ha         1 MU0       0.136000
     55 H35          0.2590    -4.7110     0.5340 ha         1 MU0       0.137000
     56 H34          2.2090    -3.2420     0.5590 ha         1 MU0       0.147500
     57 HN4          2.6690     2.5640    -0.8180 hn         1 MU0       0.311500
     58 H25          2.5110     2.2860     2.1100 h1         1 MU0       0.089700
     59 H291         1.6550     4.5460     0.2450 hc         1 MU0       0.063200
     60 H292         1.5040     4.5580     1.9920 hc         1 MU0       0.063200
     61 H9           3.7590     5.0620    -0.8030 ha         1 MU0       0.125000
     62 H8           6.1000     5.8000    -0.6040 ha         1 MU0       0.131500
     63 H5           3.6140     4.3720     3.4160 ha         1 MU0       0.125000
     64 H6           5.9480     5.1200     3.6200 ha         1 MU0       0.131500
     65 H7           7.2070     5.8360     1.6120 ha         1 MU0       0.133000
     66 H24          0.0810     2.6060     2.0730 h1         1 MU0       0.081700
     67 HO4          0.2320     2.1950    -0.7050 ho         1 MU0       0.391000
     68 H231         1.0410     0.0950     0.6200 hc         1 MU0       0.056700
     69 H232         1.0020     0.3880     2.3370 hc         1 MU0       0.056700
     70 H12         -1.6040     0.8130     1.8840 h1         1 MU0       0.089700
     71 HN3         -1.0280    -1.0460    -0.3300 hn         1 MU0       0.307500
     72 H10         -2.2920    -1.1410    -1.9880 h1         1 MU0       0.042700
     73 H13         -3.4280     1.5700    -2.6440 hc         1 MU0       0.102700
     74 H141        -0.8350     0.1570    -3.4310 hc         1 MU0       0.032033
     75 H142        -1.3110     1.7950    -3.8660 hc         1 MU0       0.032033
     76 H143        -0.9500     1.4100    -2.1950 hc         1 MU0       0.032033
     77 H151        -4.5060    -0.1560    -4.1080 hc         1 MU0       0.032033
     78 H152        -3.3180     0.7790    -5.0060 hc         1 MU0       0.032033
     79 H153        -2.9200    -0.8450    -4.4550 hc         1 MU0       0.032033
     80 H21A        -3.3390    -2.8690    -1.5470 h1         1 MU0       0.045200
     81 H22         -3.8840    -2.3480     0.0380 h1         1 MU0       0.045200
     82 H391        -5.6350    -3.2870    -2.2790 hc         1 MU0       0.058200
     83 H392        -5.3340    -4.1300    -0.7610 hc         1 MU0       0.058200
     84 HN2         -7.3820    -0.4780    -1.0020 hn         1 MU0       0.328500
     85 H11         -7.5360    -2.8120    -0.8330 h1         1 MU0       0.040200
     86 H12A        -6.4770    -2.4320     0.5230 h1         1 MU0       0.040200
     87 H221        -0.1930    -1.8860     2.0290 hc         1 MU0       0.054200
     88 H222        -0.6540    -0.8630     3.3670 hc         1 MU0       0.054200
     89 H19         -3.4240    -0.1260     2.9370 ha         1 MU0       0.134000
     90 H18         -5.5620    -1.3100     3.1350 ha         1 MU0       0.131500
     91 H17         -5.6770    -3.7560     2.7690 ha         1 MU0       0.129000
     92 H16         -3.6170    -5.0000     2.1780 ha         1 MU0       0.131500
     93 H21         -1.4730    -3.8110     1.9750 ha         1 MU0       0.134000
@<TRIPOS>BOND
     1     1     2 2   
     2     2     3 1   
     3     2    15 1   
     4     3     4 1   
     5     3     8 1   
     6     3    49 1   
     7     4     5 1   
     8     5     6 2   
     9     5     7 1   
    10     7     8 1   
    11     7     9 1   
    12     8    50 1   
    13     8    51 1   
    14     9    10 ar  
    15     9    14 ar  
    16    10    11 ar  
    17    10    52 1   
    18    11    12 ar  
    19    11    53 1   
    20    12    13 ar  
    21    12    54 1   
    22    13    14 ar  
    23    13    55 1   
    24    14    56 1   
    25    15    16 1   
    26    15    57 1   
    27    16    17 1   
    28    16    24 1   
    29    16    58 1   
    30    17    18 1   
    31    17    59 1   
    32    17    60 1   
    33    18    19 ar  
    34    18    21 ar  
    35    19    20 ar  
    36    19    61 1   
    37    20    23 ar  
    38    20    62 1   
    39    21    22 ar  
    40    21    63 1   
    41    22    23 ar  
    42    22    64 1   
    43    23    65 1   
    44    24    25 1   
    45    24    26 1   
    46    24    66 1   
    47    25    67 1   
    48    26    27 1   
    49    26    68 1   
    50    26    69 1   
    51    27    28 1   
    52    27    42 1   
    53    27    70 1   
    54    28    29 1   
    55    28    71 1   
    56    29    30 2   
    57    29    31 1   
    58    31    32 1   
    59    31    35 1   
    60    31    72 1   
    61    32    33 1   
    62    32    34 1   
    63    32    73 1   
    64    33    74 1   
    65    33    75 1   
    66    33    76 1   
    67    34    77 1   
    68    34    78 1   
    69    34    79 1   
    70    35    36 1   
    71    35    38 1   
    72    36    37 1   
    73    36    80 1   
    74    36    81 1   
    75    37    41 1   
    76    37    82 1   
    77    37    83 1   
    78    38    39 2   
    79    38    40 1   
    80    40    41 1   
    81    40    84 1   
    82    41    85 1   
    83    41    86 1   
    84    42    43 1   
    85    42    87 1   
    86    42    88 1   
    87    43    44 ar  
    88    43    48 ar  
    89    44    45 ar  
    90    44    89 1   
    91    45    46 ar  
    92    45    90 1   
    93    46    47 ar  
    94    46    91 1   
    95    47    48 ar  
    96    47    92 1   
    97    48    93 1   
@<TRIPOS>SUBSTRUCTURE
     1 MU0         1 TEMP              0 ****  ****    0 ROOT
