@<TRIPOS>MOLECULE
MU0
   93    97     1     0     0
SMALL
No Charge or Current Charge


@<TRIPOS>ATOM
      1 O5           3.9270     0.4820     1.5420 o          1 MU0      -0.559100
      2 C26          3.7110     0.9340     0.4240 c          1 MU0       0.583100
      3 C27          4.1530     0.3180    -0.9410 c5         1 MU0       0.063300
      4 O28          4.8810    -0.9210    -0.7140 os         1 MU0      -0.381100
      5 C30          3.9800    -1.9440    -0.6340 c          1 MU0       0.709100
      6 O30          4.2560    -3.0850    -0.2920 o          1 MU0      -0.492000
      7 N31          2.7640    -1.5020    -1.1790 n          1 MU0      -0.270400
      8 C32          2.8820    -0.1420    -1.7190 c5         1 MU0       0.068000
      9 C33          1.5360    -2.2500    -1.2460 ca         1 MU0      -0.006000
     10 C38          0.7390    -2.1650    -2.4080 ca         1 MU0      -0.139000
     11 C37         -0.3750    -3.0030    -2.5800 ca         1 MU0      -0.094000
     12 C36         -0.6890    -3.9630    -1.6060 ca         1 MU0      -0.133000
     13 C35          0.1280    -4.0990    -0.4730 ca         1 MU0      -0.094000
     14 C34          1.2480    -3.2660    -0.3090 ca         1 MU0      -0.139000
     15 N4           2.9810     2.0840     0.2050 ns         1 MU0      -0.510900
     16 C25          2.1270     2.7290     1.2140 c3         1 MU0       0.079700
     17 C29          2.2280     4.2700     1.1010 c3         1 MU0      -0.041100
     18 C4           3.6590     4.7800     1.2400 ca         1 MU0      -0.084300
     19 C9           4.3570     5.2660     0.1170 ca         1 MU0      -0.106000
     20 C8           5.6790     5.7280     0.2480 ca         1 MU0      -0.105000
     21 C5           4.2970     4.7640     2.4960 ca         1 MU0      -0.106000
     22 C6           5.6190     5.2250     2.6270 ca         1 MU0      -0.105000
     23 C7           6.3100     5.7070     1.5030 ca         1 MU0      -0.105000
     24 C24          0.6570     2.2040     1.1190 c3         1 MU0       0.157300
     25 O4           0.1650     2.4160    -0.2110 oh         1 MU0      -0.637000
     26 C23          0.5320     0.6980     1.4940 c3         1 MU0      -0.124400
     27 C12         -0.9090     0.1340     1.5990 c3         1 MU0       0.119700
     28 N3          -1.4350    -0.2840     0.2970 ns         1 MU0      -0.510900
     29 C11         -2.2650     0.4660    -0.5030 c          1 MU0       0.574100
     30 O2          -2.4490     1.6580    -0.2850 o          1 MU0      -0.566100
     31 C10         -2.8640    -0.3130    -1.7110 c3         1 MU0       0.060700
     32 C13         -3.0570     0.5500    -2.9980 c3         1 MU0      -0.051700
     33 C14         -1.7220     1.1680    -3.4860 c3         1 MU0      -0.086100
     34 C15         -3.7290    -0.2330    -4.1540 c3         1 MU0      -0.086100
     35 N1          -4.0410    -1.1720    -1.3600 n          1 MU0      -0.408800
     36 C2          -3.9370    -2.6190    -1.6580 c6         1 MU0       0.094000
     37 C39         -5.3190    -3.2420    -1.8980 c6         1 MU0      -0.104400
     38 C3          -5.1470    -0.6440    -0.6560 c          1 MU0       0.625000
     39 O1          -5.2480     0.5310    -0.3530 o          1 MU0      -0.587000
     40 N2          -6.1570    -1.5150    -0.3280 ns         1 MU0      -0.534900
     41 C1          -6.2540    -2.9240    -0.7230 c6         1 MU0       0.119000
     42 C22         -0.9910    -1.0710     2.5670 c3         1 MU0      -0.053100
     43 C20         -2.3820    -1.7000     2.6180 ca         1 MU0      -0.076300
     44 C19         -3.4720    -0.9720     3.1360 ca         1 MU0      -0.105500
     45 C18         -4.7550    -1.5440     3.1730 ca         1 MU0      -0.111500
     46 C17         -4.9570    -2.8490     2.6940 ca         1 MU0      -0.119000
     47 C16         -3.8760    -3.5790     2.1730 ca         1 MU0      -0.111500
     48 C21         -2.5930    -3.0070     2.1350 ca         1 MU0      -0.105500
     49 H27          4.7680     1.0460    -1.4850 h1         1 MU0       0.108700
     50 H321         1.9870     0.4620    -1.5220 h1         1 MU0       0.067700
     51 H322         3.0610    -0.1650    -2.8020 h1         1 MU0       0.067700
     52 H38          0.9830    -1.4510    -3.1910 ha         1 MU0       0.129500
     53 H37         -0.9860    -2.9170    -3.4760 ha         1 MU0       0.119000
     54 H36         -1.5460    -4.6190    -1.7400 ha         1 MU0       0.118000
     55 H35         -0.0950    -4.8620     0.2700 ha         1 MU0       0.119000
     56 H34          1.8730    -3.3990     0.5700 ha         1 MU0       0.129500
     57 HN4          2.8610     2.3800    -0.7560 hn         1 MU0       0.311500
     58 H25          2.5060     2.4610     2.2100 h1         1 MU0       0.089700
     59 H291         1.8020     4.5920     0.1430 hc         1 MU0       0.063200
     60 H292         1.6000     4.7250     1.8780 hc         1 MU0       0.063200
     61 H9           3.8790     5.2830    -0.8600 ha         1 MU0       0.107000
     62 H8           6.2130     6.1000    -0.6230 ha         1 MU0       0.113500
     63 H5           3.7700     4.3920     3.3720 ha         1 MU0       0.107000
     64 H6           6.1060     5.2090     3.6000 ha         1 MU0       0.113500
     65 H7           7.3330     6.0650     1.6040 ha         1 MU0       0.115000
     66 H24          0.0530     2.7770     1.8380 h1         1 MU0       0.081700
     67 HO4         -0.7960     2.1770    -0.2000 ho         1 MU0       0.430000
     68 H231         1.1000     0.0800     0.7900 hc         1 MU0       0.056700
     69 H232         1.0200     0.5720     2.4680 hc         1 MU0       0.056700
     70 H12         -1.5610     0.9190     2.0080 h1         1 MU0       0.089700
     71 HN3         -1.3150    -1.2550     0.0320 hn         1 MU0       0.307500
     72 H10         -2.0640    -1.0150    -1.9770 h1         1 MU0       0.042700
     73 H13         -3.7300     1.3780    -2.7380 hc         1 MU0       0.102700
     74 H141        -0.9980     0.3830    -3.7350 hc         1 MU0       0.032033
     75 H142        -1.8830     1.7800    -4.3810 hc         1 MU0       0.032033
     76 H143        -1.2740     1.8150    -2.7220 hc         1 MU0       0.032033
     77 H151        -4.7360    -0.5660    -3.8740 hc         1 MU0       0.032033
     78 H152        -3.8300     0.4000    -5.0440 hc         1 MU0       0.032033
     79 H153        -3.1350    -1.1130    -4.4260 hc         1 MU0       0.032033
     80 H21A        -3.3120    -2.7780    -2.5470 h1         1 MU0       0.045200
     81 H22         -3.4500    -3.1200    -0.8090 h1         1 MU0       0.045200
     82 H391        -5.7440    -2.8320    -2.8240 hc         1 MU0       0.058200
     83 H392        -5.2350    -4.3280    -2.0390 hc         1 MU0       0.058200
     84 HN2         -6.9270    -1.1080     0.1860 hn         1 MU0       0.328500
     85 H11         -7.2950    -3.1550    -0.9920 h1         1 MU0       0.040200
     86 H12A        -5.9810    -3.5430     0.1420 h1         1 MU0       0.040200
     87 H221        -0.2480    -1.8200     2.2650 hc         1 MU0       0.054200
     88 H222        -0.7020    -0.7430     3.5730 hc         1 MU0       0.054200
     89 H19         -3.3250     0.0390     3.5100 ha         1 MU0       0.116000
     90 H18         -5.5920    -0.9760     3.5730 ha         1 MU0       0.113500
     91 H17         -5.9500    -3.2920     2.7240 ha         1 MU0       0.111000
     92 H16         -4.0310    -4.5890     1.7980 ha         1 MU0       0.113500
     93 H21         -1.7640    -3.5810     1.7300 ha         1 MU0       0.116000
@<TRIPOS>BOND
     1     1     2 2   
     2     2     3 1   
     3     2    15 1   
     4     3     4 1   
     5     3     8 1   
     6     3    49 1   
     7     4     5 1   
     8     5     6 2   
     9     5     7 1   
    10     7     8 1   
    11     7     9 1   
    12     8    50 1   
    13     8    51 1   
    14     9    10 ar  
    15     9    14 ar  
    16    10    11 ar  
    17    10    52 1   
    18    11    12 ar  
    19    11    53 1   
    20    12    13 ar  
    21    12    54 1   
    22    13    14 ar  
    23    13    55 1   
    24    14    56 1   
    25    15    16 1   
    26    15    57 1   
    27    16    17 1   
    28    16    24 1   
    29    16    58 1   
    30    17    18 1   
    31    17    59 1   
    32    17    60 1   
    33    18    19 ar  
    34    18    21 ar  
    35    19    20 ar  
    36    19    61 1   
    37    20    23 ar  
    38    20    62 1   
    39    21    22 ar  
    40    21    63 1   
    41    22    23 ar  
    42    22    64 1   
    43    23    65 1   
    44    24    25 1   
    45    24    26 1   
    46    24    66 1   
    47    25    67 1   
    48    26    27 1   
    49    26    68 1   
    50    26    69 1   
    51    27    28 1   
    52    27    42 1   
    53    27    70 1   
    54    28    29 1   
    55    28    71 1   
    56    29    30 2   
    57    29    31 1   
    58    31    32 1   
    59    31    35 1   
    60    31    72 1   
    61    32    33 1   
    62    32    34 1   
    63    32    73 1   
    64    33    74 1   
    65    33    75 1   
    66    33    76 1   
    67    34    77 1   
    68    34    78 1   
    69    34    79 1   
    70    35    36 1   
    71    35    38 1   
    72    36    37 1   
    73    36    80 1   
    74    36    81 1   
    75    37    41 1   
    76    37    82 1   
    77    37    83 1   
    78    38    39 2   
    79    38    40 1   
    80    40    41 1   
    81    40    84 1   
    82    41    85 1   
    83    41    86 1   
    84    42    43 1   
    85    42    87 1   
    86    42    88 1   
    87    43    44 ar  
    88    43    48 ar  
    89    44    45 ar  
    90    44    89 1   
    91    45    46 ar  
    92    45    90 1   
    93    46    47 ar  
    94    46    91 1   
    95    47    48 ar  
    96    47    92 1   
    97    48    93 1   
@<TRIPOS>SUBSTRUCTURE
     1 MU0         1 TEMP              0 ****  ****    0 ROOT
