@<TRIPOS>MOLECULE
MU1
   92    95     1     0     0
SMALL
No Charge or Current Charge


@<TRIPOS>ATOM
      1 O1          -3.8690     3.7490     3.0430 o          1 MU1      -0.624100
      2 C3          -4.6410     3.3530     2.1820 c          1 MU1       0.604100
      3 C2          -5.9360     4.0780     1.8450 c3         1 MU1      -0.177100
      4 N1          -4.4050     2.2230     1.4370 ns         1 MU1      -0.495900
      5 C10         -3.2050     1.3640     1.5460 c3         1 MU1       0.032700
      6 C13         -3.3450     0.3670     2.7390 c3         1 MU1      -0.066700
      7 C14         -4.4340    -0.7120     2.5120 c3         1 MU1      -0.089100
      8 C15         -1.9980    -0.2760     3.1390 c3         1 MU1      -0.089100
      9 C11         -2.9570     0.6700     0.1740 c          1 MU1       0.594100
     10 O2          -3.8640     0.3880    -0.6000 o          1 MU1      -0.593100
     11 N3          -1.6320     0.4330    -0.1380 ns         1 MU1      -0.492900
     12 C12         -1.1470     0.1570    -1.4980 c3         1 MU1       0.108700
     13 C22         -0.6630     1.4770    -2.1510 c3         1 MU1      -0.058100
     14 C20         -1.7440     2.5550    -2.1990 ca         1 MU1      -0.077300
     15 C21         -2.6390     2.6150    -3.2840 ca         1 MU1      -0.106000
     16 C16         -3.6500     3.5920    -3.3170 ca         1 MU1      -0.108000
     17 C17         -3.7730     4.5140    -2.2640 ca         1 MU1      -0.112000
     18 C18         -2.8840     4.4600    -1.1790 ca         1 MU1      -0.108000
     19 C19         -1.8720     3.4850    -1.1490 ca         1 MU1      -0.106000
     20 C23         -0.0400    -0.9280    -1.4940 c3         1 MU1      -0.120400
     21 C24         -0.5280    -2.3820    -1.2370 c3         1 MU1       0.157300
     22 O4          -1.1500    -2.4460     0.0520 oh         1 MU1      -0.646000
     23 C25          0.6220    -3.4370    -1.3220 c3         1 MU1       0.081700
     24 C29          0.1090    -4.8980    -1.2760 c3         1 MU1      -0.040100
     25 C4           1.2330    -5.9220    -1.4100 ca         1 MU1      -0.082300
     26 C5           1.6490    -6.6760    -0.2940 ca         1 MU1      -0.106000
     27 C6           2.6910    -7.6110    -0.4190 ca         1 MU1      -0.105500
     28 C7           3.3220    -7.8000    -1.6600 ca         1 MU1      -0.106000
     29 C8           2.9100    -7.0520    -2.7770 ca         1 MU1      -0.105500
     30 C9           1.8690    -6.1160    -2.6510 ca         1 MU1      -0.106000
     31 N4           1.6280    -3.2120    -0.2730 ns         1 MU1      -0.509900
     32 C26          2.7800    -2.4710    -0.4440 c          1 MU1       0.583100
     33 O5           3.1860    -2.1120    -1.5420 o          1 MU1      -0.555100
     34 C27          3.4170    -2.1470     0.9450 c5         1 MU1       0.064300
     35 C32          2.4470    -1.2200     1.7380 c5         1 MU1       0.066000
     36 O28          4.6030    -1.3220     0.7660 os         1 MU1      -0.378100
     37 C30          4.2140    -0.0130     0.7170 c          1 MU1       0.707100
     38 O30          4.9430     0.9170     0.4050 o          1 MU1      -0.483000
     39 N31          2.9130     0.0780     1.2350 n          1 MU1      -0.268400
     40 C33          2.0940     1.2620     1.2960 ca         1 MU1      -0.021000
     41 C38          1.2840     1.4760     2.4270 ca         1 MU1      -0.148000
     42 C37          0.5810     2.6790     2.5860 ca         1 MU1      -0.104000
     43 C36          0.7130     3.7060     1.6410 ca         1 MU1      -0.097000
     44 C34          2.2750     2.3270     0.3870 ca         1 MU1      -0.075000
     45 C35          1.5690     3.5460     0.5260 ca         1 MU1      -0.155600
     46 C39          1.7480     4.6410    -0.5100 c          1 MU1       0.580700
     47 O39          2.4750     4.4740    -1.4820 o          1 MU1      -0.508100
     48 C40          1.0120     5.9720    -0.3430 c3         1 MU1      -0.196100
     49 H21A        -5.9420     4.3150     0.7750 hc         1 MU1       0.061367
     50 H22         -6.7730     3.3760     1.9330 hc         1 MU1       0.061367
     51 H23         -6.0910     4.9730     2.4580 hc         1 MU1       0.061367
     52 HN1         -5.0950     1.9890     0.7310 hn         1 MU1       0.338500
     53 H10         -2.3430     2.0180     1.7330 h1         1 MU1       0.076700
     54 H13         -3.6640     0.9550     3.6080 hc         1 MU1       0.064700
     55 H141        -4.1590    -1.3880     1.6940 hc         1 MU1       0.036367
     56 H142        -4.5700    -1.3160     3.4170 hc         1 MU1       0.036367
     57 H143        -5.3990    -0.2520     2.2700 hc         1 MU1       0.036367
     58 H151        -2.1210    -0.9040     4.0300 hc         1 MU1       0.036367
     59 H152        -1.5970    -0.9040     2.3370 hc         1 MU1       0.036367
     60 H153        -1.2610     0.4980     3.3780 hc         1 MU1       0.036367
     61 HN3         -0.9490     0.7290     0.5510 hn         1 MU1       0.304500
     62 H12         -1.9800    -0.2190    -2.1090 h1         1 MU1       0.092700
     63 H221         0.2120     1.8490    -1.6050 hc         1 MU1       0.059200
     64 H222        -0.3120     1.2650    -3.1690 hc         1 MU1       0.059200
     65 H21         -2.5570     1.9000    -4.1000 ha         1 MU1       0.110000
     66 H16         -4.3400     3.6320    -4.1580 ha         1 MU1       0.113500
     67 H17         -4.5570     5.2680    -2.2890 ha         1 MU1       0.111000
     68 H18         -2.9800     5.1700    -0.3600 ha         1 MU1       0.113500
     69 H19         -1.1990     3.4410    -0.2990 ha         1 MU1       0.110000
     70 H231         0.4600    -0.9180    -2.4700 hc         1 MU1       0.060200
     71 H232         0.7200    -0.6450    -0.7580 hc         1 MU1       0.060200
     72 H24         -1.2640    -2.6260    -2.0180 h1         1 MU1       0.080700
     73 HO4         -1.6250    -1.5950     0.1620 ho         1 MU1       0.436000
     74 H25          1.1070    -3.3070    -2.2990 h1         1 MU1       0.089700
     75 H291        -0.4420    -5.0600    -0.3410 hc         1 MU1       0.062200
     76 H292        -0.6190    -5.0450    -2.0830 hc         1 MU1       0.062200
     77 H5           1.1690    -6.5350     0.6720 ha         1 MU1       0.106500
     78 H6           3.0090    -8.1890     0.4460 ha         1 MU1       0.114000
     79 H7           4.1280    -8.5240    -1.7570 ha         1 MU1       0.115000
     80 H8           3.3980    -7.1970    -3.7380 ha         1 MU1       0.114000
     81 H9           1.5570    -5.5410    -3.5200 ha         1 MU1       0.106500
     82 HN4          1.3760    -3.4690     0.6740 hn         1 MU1       0.310500
     83 H27          3.6600    -3.0850     1.4610 h1         1 MU1       0.108700
     84 H321         1.3830    -1.3930     1.5270 h1         1 MU1       0.064700
     85 H322         2.6090    -1.3020     2.8210 h1         1 MU1       0.064700
     86 H38          1.1960     0.7100     3.1930 ha         1 MU1       0.115000
     87 H37         -0.0580     2.8240     3.4550 ha         1 MU1       0.132000
     88 H36          0.1530     4.6250     1.7970 ha         1 MU1       0.126000
     89 H34          2.9410     2.1960    -0.4630 ha         1 MU1       0.162000
     90 H401        -0.0630     5.7810    -0.2650 hc         1 MU1       0.064033
     91 H402         1.2550     6.3950     0.6380 hc         1 MU1       0.064033
     92 H403         1.2340     6.6790    -1.1510 hc         1 MU1       0.064033
@<TRIPOS>BOND
     1     1     2 2   
     2     2     3 1   
     3     2     4 1   
     4     3    49 1   
     5     3    50 1   
     6     3    51 1   
     7     4     5 1   
     8     4    52 1   
     9     5     6 1   
    10     5     9 1   
    11     5    53 1   
    12     6     7 1   
    13     6     8 1   
    14     6    54 1   
    15     7    55 1   
    16     7    56 1   
    17     7    57 1   
    18     8    58 1   
    19     8    59 1   
    20     8    60 1   
    21     9    10 2   
    22     9    11 1   
    23    11    12 1   
    24    11    61 1   
    25    12    13 1   
    26    12    20 1   
    27    12    62 1   
    28    13    14 1   
    29    13    63 1   
    30    13    64 1   
    31    14    15 ar  
    32    14    19 ar  
    33    15    16 ar  
    34    15    65 1   
    35    16    17 ar  
    36    16    66 1   
    37    17    18 ar  
    38    17    67 1   
    39    18    19 ar  
    40    18    68 1   
    41    19    69 1   
    42    20    21 1   
    43    20    70 1   
    44    20    71 1   
    45    21    22 1   
    46    21    23 1   
    47    21    72 1   
    48    22    73 1   
    49    23    24 1   
    50    23    31 1   
    51    23    74 1   
    52    24    25 1   
    53    24    75 1   
    54    24    76 1   
    55    25    26 ar  
    56    25    30 ar  
    57    26    27 ar  
    58    26    77 1   
    59    27    28 ar  
    60    27    78 1   
    61    28    29 ar  
    62    28    79 1   
    63    29    30 ar  
    64    29    80 1   
    65    30    81 1   
    66    31    32 1   
    67    31    82 1   
    68    32    33 2   
    69    32    34 1   
    70    34    35 1   
    71    34    36 1   
    72    34    83 1   
    73    35    39 1   
    74    35    84 1   
    75    35    85 1   
    76    36    37 1   
    77    37    38 2   
    78    37    39 1   
    79    39    40 1   
    80    40    41 ar  
    81    40    44 ar  
    82    41    42 ar  
    83    41    86 1   
    84    42    43 ar  
    85    42    87 1   
    86    43    45 ar  
    87    43    88 1   
    88    44    45 ar  
    89    44    89 1   
    90    45    46 1   
    91    46    47 2   
    92    46    48 1   
    93    48    90 1   
    94    48    91 1   
    95    48    92 1   
@<TRIPOS>SUBSTRUCTURE
     1 MU1         1 TEMP              0 ****  ****    0 ROOT
