@<TRIPOS>MOLECULE
MU1
   92    95     1     0     0
SMALL
bcc


@<TRIPOS>ATOM
      1 O1          -3.5950     3.6650     2.8380 o          1 MU1      -0.624100
      2 C3          -4.4540     3.2160     2.0910 c          1 MU1       0.671100
      3 C2          -5.7080     3.9850     1.7600 c3         1 MU1      -0.177100
      4 N1          -4.3450     2.0170     1.4920 ns         1 MU1      -0.562900
      5 C10         -3.1590     1.2030     1.5850 c3         1 MU1       0.032700
      6 C13         -3.2660     0.1350     2.6970 c3         1 MU1      -0.066700
      7 C14         -4.2320    -0.9950     2.3610 c3         1 MU1      -0.089100
      8 C15         -1.8970    -0.4040     3.0930 c3         1 MU1      -0.089100
      9 C11         -2.9140     0.6040     0.2020 c          1 MU1       0.661100
     10 O2          -3.8420     0.2570    -0.5070 o          1 MU1      -0.593100
     11 N3          -1.6190     0.4830    -0.1490 ns         1 MU1      -0.559900
     12 C12         -1.1810     0.1930    -1.5030 c3         1 MU1       0.108700
     13 C22         -0.6920     1.4970    -2.1610 c3         1 MU1      -0.058100
     14 C20         -1.7560     2.5570    -2.1510 ca         1 MU1      -0.077300
     15 C21         -2.7020     2.6170    -3.1710 ca         1 MU1      -0.124000
     16 C16         -3.7380     3.5410    -3.1300 ca         1 MU1      -0.126000
     17 C17         -3.8480     4.4200    -2.0600 ca         1 MU1      -0.130000
     18 C18         -2.9090     4.3740    -1.0390 ca         1 MU1      -0.126000
     19 C19         -1.8730     3.4520    -1.0900 ca         1 MU1      -0.124000
     20 C23         -0.0900    -0.8750    -1.5120 c3         1 MU1      -0.120400
     21 C24         -0.6090    -2.3070    -1.3970 c3         1 MU1       0.134100
     22 O4          -1.4950    -2.4940    -0.3150 oh         1 MU1      -0.583800
     23 C25          0.5400    -3.3320    -1.3690 c3         1 MU1       0.081700
     24 C29          0.0200    -4.7720    -1.3650 c3         1 MU1      -0.040100
     25 C4           1.1360    -5.7760    -1.4090 ca         1 MU1      -0.082300
     26 C5           1.5730    -6.4130    -0.2510 ca         1 MU1      -0.124000
     27 C6           2.6290    -7.3140    -0.2870 ca         1 MU1      -0.123500
     28 C7           3.2670    -7.5910    -1.4890 ca         1 MU1      -0.124000
     29 C8           2.8390    -6.9630    -2.6520 ca         1 MU1      -0.123500
     30 C9           1.7820    -6.0640    -2.6100 ca         1 MU1      -0.124000
     31 N4           1.4050    -3.1080    -0.2250 ns         1 MU1      -0.576900
     32 C26          2.5550    -2.4200    -0.2830 c          1 MU1       0.650100
     33 O5           3.0690    -2.0070    -1.3040 o          1 MU1      -0.555100
     34 C27          3.1550    -2.0900     1.0910 c5         1 MU1       0.041100
     35 C32          2.2770    -1.0800     1.8230 c5         1 MU1       0.066000
     36 O28          4.3590    -1.3720     0.8870 os         1 MU1      -0.354900
     37 C30          4.0770    -0.0610     0.8020 c          1 MU1       0.849600
     38 O30          4.8780     0.7550     0.4380 o          1 MU1      -0.558500
     39 N31          2.7880     0.1360     1.2200 n          1 MU1      -0.428000
     40 C33          2.1390     1.3720     1.3060 ca         1 MU1       0.071600
     41 C38          1.2270     1.5900     2.3390 ca         1 MU1      -0.166000
     42 C37          0.5350     2.7890     2.4170 ca         1 MU1      -0.122000
     43 C36          0.7580     3.7890     1.4850 ca         1 MU1      -0.115000
     44 C34          2.3410     2.3630     0.3520 ca         1 MU1      -0.093000
     45 C35          1.6630     3.5760     0.4460 ca         1 MU1      -0.155600
     46 C39          1.9080     4.6100    -0.6070 c          1 MU1       0.580700
     47 O39          2.6500     4.3720    -1.5340 o          1 MU1      -0.508100
     48 C40          1.2020     5.9310    -0.4810 c3         1 MU1      -0.196100
     49 H21A        -5.4400     4.8580     1.1620 hc         1 MU1       0.061367
     50 H22         -6.4390     3.4040     1.2010 hc         1 MU1       0.061367
     51 H23         -6.1730     4.3480     2.6750 hc         1 MU1       0.061367
     52 HN1         -5.0610     1.7200     0.8470 hn         1 MU1       0.338500
     53 H10         -2.3320     1.8690     1.8430 h1         1 MU1       0.076700
     54 H13         -3.6620     0.6730     3.5640 hc         1 MU1       0.064700
     55 H141        -3.8420    -1.6400     1.5710 hc         1 MU1       0.036367
     56 H142        -4.3930    -1.6170     3.2420 hc         1 MU1       0.036367
     57 H143        -5.2050    -0.6220     2.0410 hc         1 MU1       0.036367
     58 H151        -1.9910    -1.1580     3.8740 hc         1 MU1       0.036367
     59 H152        -1.3820    -0.8740     2.2540 hc         1 MU1       0.036367
     60 H153        -1.2550     0.3890     3.4800 hc         1 MU1       0.036367
     61 HN3         -0.9410     0.9430     0.4420 hn         1 MU1       0.304500
     62 H12         -2.0510    -0.1650    -2.0550 h1         1 MU1       0.092700
     63 H221         0.2050     1.8430    -1.6360 hc         1 MU1       0.059200
     64 H222        -0.3870     1.2720    -3.1850 hc         1 MU1       0.059200
     65 H21         -2.6310     1.9300    -4.0070 ha         1 MU1       0.128000
     66 H16         -4.4620     3.5720    -3.9340 ha         1 MU1       0.131500
     67 H17         -4.6570     5.1380    -2.0260 ha         1 MU1       0.129000
     68 H18         -2.9790     5.0570    -0.2020 ha         1 MU1       0.131500
     69 H19         -1.1490     3.4270    -0.2840 ha         1 MU1       0.128000
     70 H231         0.4780    -0.8030    -2.4430 hc         1 MU1       0.060200
     71 H232         0.6260    -0.6480    -0.7140 hc         1 MU1       0.060200
     72 H24         -1.1990    -2.5180    -2.2950 h1         1 MU1       0.080700
     73 HO4         -1.1060    -2.1280     0.4850 ho         1 MU1       0.397000
     74 H25          1.1420    -3.1830    -2.2670 h1         1 MU1       0.089700
     75 H291        -0.5990    -4.9340    -0.4790 hc         1 MU1       0.062200
     76 H292        -0.6350    -4.8940    -2.2300 hc         1 MU1       0.062200
     77 H5           1.0770    -6.2070     0.6910 ha         1 MU1       0.124500
     78 H6           2.9520    -7.8020     0.6240 ha         1 MU1       0.132000
     79 H7           4.0900    -8.2930    -1.5200 ha         1 MU1       0.133000
     80 H8           3.3280    -7.1740    -3.5950 ha         1 MU1       0.132000
     81 H9           1.4530    -5.5820    -3.5230 ha         1 MU1       0.124500
     82 HN4          1.1060    -3.4750     0.6660 hn         1 MU1       0.310500
     83 H27          3.3590    -2.9850     1.6790 h1         1 MU1       0.108700
     84 H321         1.2140    -1.2140     1.6230 h1         1 MU1       0.064700
     85 H322         2.4330    -1.1070     2.9040 h1         1 MU1       0.064700
     86 H38          1.0710     0.8380     3.1020 ha         1 MU1       0.133000
     87 H37         -0.1730     2.9460     3.2200 ha         1 MU1       0.150000
     88 H36          0.2190     4.7230     1.5740 ha         1 MU1       0.144000
     89 H34          3.0170     2.1990    -0.4740 ha         1 MU1       0.180000
     90 H401         0.1220     5.7980    -0.5750 hc         1 MU1       0.064033
     91 H402         1.3850     6.3870     0.4920 hc         1 MU1       0.064033
     92 H403         1.5340     6.6110    -1.2610 hc         1 MU1       0.064033
@<TRIPOS>BOND
     1     1     2 2   
     2     2     3 1   
     3     2     4 1   
     4     3    49 1   
     5     3    50 1   
     6     3    51 1   
     7     4     5 1   
     8     4    52 1   
     9     5     6 1   
    10     5     9 1   
    11     5    53 1   
    12     6     7 1   
    13     6     8 1   
    14     6    54 1   
    15     7    55 1   
    16     7    56 1   
    17     7    57 1   
    18     8    58 1   
    19     8    59 1   
    20     8    60 1   
    21     9    10 2   
    22     9    11 1   
    23    11    12 1   
    24    11    61 1   
    25    12    13 1   
    26    12    20 1   
    27    12    62 1   
    28    13    14 1   
    29    13    63 1   
    30    13    64 1   
    31    14    15 ar  
    32    14    19 ar  
    33    15    16 ar  
    34    15    65 1   
    35    16    17 ar  
    36    16    66 1   
    37    17    18 ar  
    38    17    67 1   
    39    18    19 ar  
    40    18    68 1   
    41    19    69 1   
    42    20    21 1   
    43    20    70 1   
    44    20    71 1   
    45    21    22 1   
    46    21    23 1   
    47    21    72 1   
    48    22    73 1   
    49    23    24 1   
    50    23    31 1   
    51    23    74 1   
    52    24    25 1   
    53    24    75 1   
    54    24    76 1   
    55    25    26 ar  
    56    25    30 ar  
    57    26    27 ar  
    58    26    77 1   
    59    27    28 ar  
    60    27    78 1   
    61    28    29 ar  
    62    28    79 1   
    63    29    30 ar  
    64    29    80 1   
    65    30    81 1   
    66    31    32 1   
    67    31    82 1   
    68    32    33 2   
    69    32    34 1   
    70    34    35 1   
    71    34    36 1   
    72    34    83 1   
    73    35    39 1   
    74    35    84 1   
    75    35    85 1   
    76    36    37 1   
    77    37    38 2   
    78    37    39 1   
    79    39    40 1   
    80    40    41 ar  
    81    40    44 ar  
    82    41    42 ar  
    83    41    86 1   
    84    42    43 ar  
    85    42    87 1   
    86    43    45 ar  
    87    43    88 1   
    88    44    45 ar  
    89    44    89 1   
    90    45    46 1   
    91    46    47 2   
    92    46    48 1   
    93    48    90 1   
    94    48    91 1   
    95    48    92 1   
@<TRIPOS>SUBSTRUCTURE
     1 MU1         1 TEMP              0 ****  ****    0 ROOT
