@<TRIPOS>MOLECULE
MU3
   37    40     1     0     0
SMALL
abcg2


@<TRIPOS>ATOM
      1 N1           7.5480    -0.1310    18.3080 nc         1 MU3      -0.334000
      2 N3           5.7220     0.5010    19.3590 na         1 MU3      -0.364000
      3 C4           4.0110     2.0150    20.4360 cx         1 MU3      -0.122900
      4 C5           5.0720     1.7420    21.4650 cx         1 MU3      -0.122900
      5 C6           8.7650    -0.1210    22.7790 c6         1 MU3      -0.076400
      6 C7           8.1980     0.7930    23.8750 c6         1 MU3      -0.109400
      7 C8           8.8450     0.4470    25.1980 c6         1 MU3       0.162600
      8 C10         12.3160     0.1270    24.1600 ca         1 MU3      -0.140000
      9 C13         11.0530    -0.6950    21.8380 ca         1 MU3      -0.062000
     10 C            8.3430     0.4150    21.4180 c          1 MU3       0.612100
     11 C14         10.2750    -0.2110    22.8920 ca         1 MU3      -0.153300
     12 C12         12.4350    -0.7670    21.9270 ca         1 MU3      -0.137000
     13 C11         13.0680    -0.3460    23.0960 ca         1 MU3      -0.072000
     14 C9          10.9250     0.1900    24.0640 ca         1 MU3       0.145100
     15 O1          10.2640     0.6700    25.1580 os         1 MU3      -0.348100
     16 N            7.5250    -0.4140    20.7020 ns         1 MU3      -0.499400
     17 C1           6.9740    -0.0380    19.4790 cd         1 MU3       0.494400
     18 C2           5.5740     0.7190    18.0260 cd         1 MU3       0.393400
     19 N2           6.6530     0.3570    17.3770 nc         1 MU3      -0.356000
     20 C3           4.7640     0.7200    20.4120 cx         1 MU3      -0.003700
     21 H1           4.2400     2.7380    19.6650 hc         1 MU3       0.088700
     22 H2           2.9710     1.9700    20.7300 hc         1 MU3       0.088700
     23 H3           6.0050     2.2800    21.3700 hc         1 MU3       0.088700
     24 H4           4.7760     1.5080    22.4780 hc         1 MU3       0.088700
     25 H5           8.3430    -1.1210    22.9130 hc         1 MU3       0.057700
     26 H7           7.1170     0.6730    23.9480 hc         1 MU3       0.067200
     27 H8           8.4760     1.0810    26.0020 h1         1 MU3       0.056700
     28 H9           8.6630    -0.6000    25.4600 h1         1 MU3       0.056700
     29 H10         12.7880     0.4510    25.0790 ha         1 MU3       0.128000
     30 H11         10.5610    -1.0140    20.9270 ha         1 MU3       0.120000
     31 H12         13.0150    -1.1450    21.0950 ha         1 MU3       0.121000
     32 H13         14.1460    -0.3920    23.1810 ha         1 MU3       0.117000
     33 H14          7.2380    -1.2930    21.1080 hn         1 MU3       0.334500
     34 H15          4.6800     1.1360    17.5910 h5         1 MU3       0.065100
     35 H16          4.2470    -0.1820    20.7090 h1         1 MU3       0.096700
     36 H6           8.4090     1.8360    23.6300 hc         1 MU3       0.067200
     37 O            8.6810     1.5120    21.0040 o          1 MU3      -0.548100
@<TRIPOS>BOND
     1     1    17 2   
     2     1    19 1   
     3     2    17 1   
     4     2    18 1   
     5     2    20 1   
     6     3     4 1   
     7     3    20 1   
     8     3    21 1   
     9     3    22 1   
    10     4    20 1   
    11     4    23 1   
    12     4    24 1   
    13     5     6 1   
    14     5    10 1   
    15     5    11 1   
    16     5    25 1   
    17     6     7 1   
    18     6    26 1   
    19     6    36 1   
    20     7    15 1   
    21     7    27 1   
    22     7    28 1   
    23     8    13 ar  
    24     8    14 ar  
    25     8    29 1   
    26     9    11 ar  
    27     9    12 ar  
    28     9    30 1   
    29    10    16 1   
    30    10    37 2   
    31    11    14 ar  
    32    12    13 ar  
    33    12    31 1   
    34    13    32 1   
    35    14    15 1   
    36    16    17 1   
    37    16    33 1   
    38    18    19 2   
    39    18    34 1   
    40    20    35 1   
@<TRIPOS>SUBSTRUCTURE
     1 MU3         1 TEMP              0 ****  ****    0 ROOT
