@<TRIPOS>MOLECULE
MU3
   37    40     1     0     0
SMALL
No Charge or Current Charge


@<TRIPOS>ATOM
      1 N1           7.6300     1.6980    18.5970 nc         1 MU3      -0.334000
      2 N3           5.7040     0.9710    19.2960 na         1 MU3      -0.364000
      3 C4           3.2580     0.7650    20.2680 cx         1 MU3      -0.122900
      4 C5           4.1920     0.7770    21.4530 cx         1 MU3      -0.122900
      5 C6           9.0690     0.4250    22.7400 c6         1 MU3      -0.076400
      6 C7           8.8010     1.5470    23.7760 c6         1 MU3      -0.109400
      7 C8           9.3390     1.1380    25.1590 c6         1 MU3       0.162600
      8 C10         12.4840    -0.5610    24.2490 ca         1 MU3      -0.140000
      9 C13         10.9460    -1.1460    21.9710 ca         1 MU3      -0.062000
     10 C            8.8220     0.9490    21.3000 c          1 MU3       0.612100
     11 C14         10.4460    -0.2440    22.9340 ca         1 MU3      -0.153300
     12 C12         12.2090    -1.7390    22.1410 ca         1 MU3      -0.137000
     13 C11         12.9830    -1.4410    23.2750 ca         1 MU3      -0.072000
     14 C9          11.2170     0.0230    24.0920 ca         1 MU3       0.145100
     15 O1          10.7510     0.8570    25.0870 os         1 MU3      -0.348100
     16 N            7.5310     0.8030    20.8510 ns         1 MU3      -0.499400
     17 C1           7.0110     1.1490    19.6330 cd         1 MU3       0.494400
     18 C2           5.5330     1.3840    18.0040 cd         1 MU3       0.393400
     19 N2           6.7010     1.8460    17.5690 nc         1 MU3      -0.356000
     20 C3           4.6850     0.2960    20.1080 cx         1 MU3      -0.003700
     21 H1           2.9820     1.7220    19.8330 hc         1 MU3       0.088700
     22 H2           2.4740     0.0110    20.2450 hc         1 MU3       0.088700
     23 H3           4.5390     1.7440    21.8090 hc         1 MU3       0.088700
     24 H4           4.0350     0.0330    22.2310 hc         1 MU3       0.088700
     25 H5           8.2880    -0.3210    22.9420 hc         1 MU3       0.057700
     26 H7           7.7280     1.7740    23.8360 hc         1 MU3       0.067200
     27 H8           9.1700     1.9410    25.8910 h1         1 MU3       0.056700
     28 H9           8.8150     0.2380    25.5110 h1         1 MU3       0.056700
     29 H10         13.0730    -0.3400    25.1350 ha         1 MU3       0.128000
     30 H11         10.3610    -1.3860    21.0850 ha         1 MU3       0.120000
     31 H12         12.5900    -2.4270    21.3900 ha         1 MU3       0.121000
     32 H13         13.9620    -1.8980    23.4030 ha         1 MU3       0.117000
     33 H14          6.8960     0.3950    21.5200 hn         1 MU3       0.334500
     34 H15          4.5930     1.3260    17.4680 h5         1 MU3       0.065100
     35 H16          4.8440    -0.7770    19.9880 h1         1 MU3       0.096700
     36 H6           9.3020     2.4750    23.4630 hc         1 MU3       0.067200
     37 O            9.7220     1.4050    20.6100 o          1 MU3      -0.548100
@<TRIPOS>BOND
     1     1    17 2   
     2     1    19 1   
     3     2    17 1   
     4     2    18 1   
     5     2    20 1   
     6     3     4 1   
     7     3    20 1   
     8     3    21 1   
     9     3    22 1   
    10     4    20 1   
    11     4    23 1   
    12     4    24 1   
    13     5     6 1   
    14     5    10 1   
    15     5    11 1   
    16     5    25 1   
    17     6     7 1   
    18     6    26 1   
    19     6    36 1   
    20     7    15 1   
    21     7    27 1   
    22     7    28 1   
    23     8    13 ar  
    24     8    14 ar  
    25     8    29 1   
    26     9    11 ar  
    27     9    12 ar  
    28     9    30 1   
    29    10    16 1   
    30    10    37 2   
    31    11    14 ar  
    32    12    13 ar  
    33    12    31 1   
    34    13    32 1   
    35    14    15 1   
    36    16    17 1   
    37    16    33 1   
    38    18    19 2   
    39    18    34 1   
    40    20    35 1   
@<TRIPOS>SUBSTRUCTURE
     1 MU3         1 TEMP              0 ****  ****    0 ROOT
