@<TRIPOS>MOLECULE
MU5
   50    53     1     0     0
SMALL
No Charge or Current Charge


@<TRIPOS>ATOM
      1 N1          10.0880    81.5190     8.6290 nb         1 MU5      -0.674000
      2 N3           5.2100    81.5660     8.2250 ns         1 MU5      -0.466900
      3 C4           7.6490    81.5400     8.4310 ca         1 MU5       0.164500
      4 C5           6.3960    82.1250     7.7830 c          1 MU5       0.522600
      5 C6           3.9350    82.0160     7.6410 c5         1 MU5       0.116700
      6 C7           3.6850    81.0260     6.4330 c5         1 MU5      -0.049600
      7 C8           3.0700    79.8490     7.1500 ca         1 MU5      -0.093800
      8 C10          2.8660    81.6360     8.7410 c5         1 MU5      -0.049600
      9 C13          2.3210    77.5680     7.4710 ca         1 MU5      -0.109500
     10 C15         11.1700    84.7780     4.4450 c6         1 MU5       0.099000
     11 C17         10.5210    87.2150     4.8310 c6         1 MU5      -0.074400
     12 N            9.1710    82.9760     7.0620 ns         1 MU5      -0.337900
     13 C           10.2330    83.2280     6.2260 c          1 MU5       0.667100
     14 O           11.2320    82.5230     6.1790 o          1 MU5      -0.583100
     15 C1           8.9560    81.9770     8.0300 ca         1 MU5       0.522900
     16 C11          2.0120    79.2250     9.2400 ca         1 MU5      -0.093000
     17 C12          1.8640    77.9090     8.7610 ca         1 MU5      -0.109500
     18 C14          2.9280    78.5430     6.6550 ca         1 MU5      -0.093000
     19 C16         11.6850    86.1950     4.7940 c6         1 MU5      -0.104400
     20 C18          9.3960    86.7280     5.7770 c6         1 MU5      -0.104400
     21 C19          8.9350    85.2990     5.4030 c6         1 MU5       0.099000
     22 C2           9.9130    80.5810     9.5990 ca         1 MU5       0.362900
     23 C3           8.6300    80.1170     9.9830 ca         1 MU5       0.226900
     24 C9           2.6220    80.1830     8.4140 ca         1 MU5      -0.093800
     25 N2           7.4870    80.5870     9.4140 nb         1 MU5      -0.621000
     26 N4          10.0940    84.3570     5.3850 n          1 MU5      -0.415800
     27 O1           6.4120    83.0220     6.9460 o          1 MU5      -0.656100
     28 H1           5.2940    80.8220     8.9100 hn         1 MU5       0.350500
     29 H2           3.9230    83.0800     7.3660 h1         1 MU5       0.078700
     30 H3           4.5990    80.7750     5.8820 hc         1 MU5       0.065700
     31 H4           2.9810    81.4580     5.7130 hc         1 MU5       0.065700
     32 H5           3.2200    81.8030     9.7650 hc         1 MU5       0.065700
     33 H6           1.9500    82.2240     8.6160 hc         1 MU5       0.065700
     34 H7           2.2040    76.5510     7.1040 ha         1 MU5       0.113000
     35 H8          10.7690    84.7760     3.4210 h1         1 MU5       0.058950
     36 H9          12.0120    84.0720     4.4620 h1         1 MU5       0.058950
     37 H10         10.8900    88.1960     5.1580 hc         1 MU5       0.040700
     38 H11         10.1180    87.3520     3.8180 hc         1 MU5       0.040700
     39 H12          8.3680    83.5710     6.9200 hn         1 MU5       0.207000
     40 H13          1.6600    79.4950    10.2330 ha         1 MU5       0.115000
     41 H14          1.3940    77.1540     9.3880 ha         1 MU5       0.113000
     42 H15          3.2820    78.2870     5.6580 ha         1 MU5       0.115000
     43 H16         12.1870    86.1700     5.7710 hc         1 MU5       0.050950
     44 H17         12.4390    86.5090     4.0600 hc         1 MU5       0.050950
     45 H18          9.7550    86.7360     6.8150 hc         1 MU5       0.050950
     46 H19          8.5430    87.4190     5.7330 hc         1 MU5       0.050950
     47 H20          8.4800    85.3160     4.4020 h1         1 MU5       0.058950
     48 H21          8.1500    84.9850     6.1010 h1         1 MU5       0.058950
     49 H22         10.8110    80.1960    10.0790 h4         1 MU5       0.033100
     50 H23          8.5190    79.3650    10.7620 h4         1 MU5       0.035100
@<TRIPOS>BOND
     1     1    15 ar  
     2     1    22 ar  
     3     2     4 1   
     4     2     5 1   
     5     2    28 1   
     6     3     4 1   
     7     3    15 ar  
     8     3    25 ar  
     9     4    27 2   
    10     5     6 1   
    11     5     8 1   
    12     5    29 1   
    13     6     7 1   
    14     6    30 1   
    15     6    31 1   
    16     7    18 ar  
    17     7    24 ar  
    18     8    24 1   
    19     8    32 1   
    20     8    33 1   
    21     9    17 ar  
    22     9    18 ar  
    23     9    34 1   
    24    10    19 1   
    25    10    26 1   
    26    10    35 1   
    27    10    36 1   
    28    11    19 1   
    29    11    20 1   
    30    11    37 1   
    31    11    38 1   
    32    12    13 1   
    33    12    15 1   
    34    12    39 1   
    35    13    14 2   
    36    13    26 1   
    37    16    17 ar  
    38    16    24 ar  
    39    16    40 1   
    40    17    41 1   
    41    18    42 1   
    42    19    43 1   
    43    19    44 1   
    44    20    21 1   
    45    20    45 1   
    46    20    46 1   
    47    21    26 1   
    48    21    47 1   
    49    21    48 1   
    50    22    23 ar  
    51    22    49 1   
    52    23    25 ar  
    53    23    50 1   
@<TRIPOS>SUBSTRUCTURE
     1 MU5         1 TEMP              0 ****  ****    0 ROOT
