@<TRIPOS>MOLECULE
MU5
   50    53     1     0     0
SMALL
bcc


@<TRIPOS>ATOM
      1 N1          10.0590    81.7620     8.5140 nb         1 MU5      -0.674000
      2 N3           5.3150    81.5560     8.1650 ns         1 MU5      -0.533900
      3 C4           7.6990    81.6380     8.2670 ca         1 MU5       0.164500
      4 C5           6.4190    82.0410     7.6030 c          1 MU5       0.589600
      5 C6           3.9820    81.8610     7.6810 c5         1 MU5       0.116700
      6 C7           3.5880    80.9510     6.4990 c5         1 MU5      -0.049600
      7 C8           2.9750    79.7580     7.1790 ca         1 MU5      -0.093800
      8 C10          2.9630    81.5150     8.7770 c5         1 MU5      -0.049600
      9 C13          2.1310    77.5420     7.5000 ca         1 MU5      -0.127500
     10 C15         11.1590    84.8030     4.4180 c6         1 MU5       0.099000
     11 C17         10.6740    87.1590     5.1180 c6         1 MU5      -0.074400
     12 N            9.0570    82.9280     6.7530 ns         1 MU5      -0.571400
     13 C           10.2100    83.3080     6.0740 c          1 MU5       0.801100
     14 O           11.2730    82.7270     6.2050 o          1 MU5      -0.583100
     15 C1           8.9690    82.1000     7.8350 ca         1 MU5       0.522900
     16 C11          2.0140    79.1420     9.3060 ca         1 MU5      -0.111000
     17 C12          1.7740    77.8660     8.8050 ca         1 MU5      -0.127500
     18 C14          2.7340    78.4890     6.6780 ca         1 MU5      -0.111000
     19 C16         11.7480    86.0820     5.0000 c6         1 MU5      -0.104400
     20 C18          9.4630    86.6350     5.8830 c6         1 MU5      -0.104400
     21 C19          8.9570    85.3290     5.2800 c6         1 MU5       0.099000
     22 C2           9.9240    80.9630     9.5550 ca         1 MU5       0.362900
     23 C3           8.6890    80.4780     9.9620 ca         1 MU5       0.226900
     24 C9           2.6170    80.0820     8.4860 ca         1 MU5      -0.093800
     25 N2           7.5970    80.8400     9.3140 nb         1 MU5      -0.621000
     26 N4          10.0280    84.3420     5.2110 n          1 MU5      -0.482800
     27 O1           6.4050    82.7840     6.6180 o          1 MU5      -0.656100
     28 H1           5.4320    80.9400     8.9570 hn         1 MU5       0.350500
     29 H2           3.9440    82.9150     7.4070 h1         1 MU5       0.078700
     30 H3           4.4320    80.7100     5.8530 hc         1 MU5       0.065700
     31 H4           2.8440    81.4580     5.8770 hc         1 MU5       0.065700
     32 H5           3.3510    81.6850     9.7840 hc         1 MU5       0.065700
     33 H6           2.0800    82.1520     8.6710 hc         1 MU5       0.065700
     34 H7           1.9430    76.5440     7.1250 ha         1 MU5       0.131000
     35 H8          10.7980    84.9920     3.4020 h1         1 MU5       0.058950
     36 H9          11.9050    84.0170     4.3520 h1         1 MU5       0.058950
     37 H10         11.0730    88.0510     5.6040 hc         1 MU5       0.040700
     38 H11         10.3580    87.4630     4.1140 hc         1 MU5       0.040700
     39 H12          8.1450    83.1400     6.3540 hn         1 MU5       0.373500
     40 H13          1.7370    79.3900    10.3240 ha         1 MU5       0.133000
     41 H14          1.3100    77.1180     9.4360 ha         1 MU5       0.131000
     42 H15          3.0160    78.2330     5.6630 ha         1 MU5       0.133000
     43 H16         12.1750    85.8660     5.9840 hc         1 MU5       0.050950
     44 H17         12.5680    86.4240     4.3650 hc         1 MU5       0.050950
     45 H18          9.7270    86.4630     6.9310 hc         1 MU5       0.050950
     46 H19          8.6540    87.3670     5.8740 hc         1 MU5       0.050950
     47 H20          8.5950    85.5050     4.2630 h1         1 MU5       0.058950
     48 H21          8.1060    84.9660     5.8500 h1         1 MU5       0.058950
     49 H22         10.8250    80.7010    10.0970 h4         1 MU5       0.033100
     50 H23          8.5860    79.8170    10.8120 h4         1 MU5       0.035100
@<TRIPOS>BOND
     1     1    15 ar  
     2     1    22 ar  
     3     2     4 1   
     4     2     5 1   
     5     2    28 1   
     6     3     4 1   
     7     3    15 ar  
     8     3    25 ar  
     9     4    27 2   
    10     5     6 1   
    11     5     8 1   
    12     5    29 1   
    13     6     7 1   
    14     6    30 1   
    15     6    31 1   
    16     7    18 ar  
    17     7    24 ar  
    18     8    24 1   
    19     8    32 1   
    20     8    33 1   
    21     9    17 ar  
    22     9    18 ar  
    23     9    34 1   
    24    10    19 1   
    25    10    26 1   
    26    10    35 1   
    27    10    36 1   
    28    11    19 1   
    29    11    20 1   
    30    11    37 1   
    31    11    38 1   
    32    12    13 1   
    33    12    15 1   
    34    12    39 1   
    35    13    14 2   
    36    13    26 1   
    37    16    17 ar  
    38    16    24 ar  
    39    16    40 1   
    40    17    41 1   
    41    18    42 1   
    42    19    43 1   
    43    19    44 1   
    44    20    21 1   
    45    20    45 1   
    46    20    46 1   
    47    21    26 1   
    48    21    47 1   
    49    21    48 1   
    50    22    23 ar  
    51    22    49 1   
    52    23    25 ar  
    53    23    50 1   
@<TRIPOS>SUBSTRUCTURE
     1 MU5         1 TEMP              0 ****  ****    0 ROOT
