@<TRIPOS>MOLECULE
MU6
   15    14     1     0     0
SMALL
No Charge or Current Charge


@<TRIPOS>ATOM
      1 CAB          8.7250    -2.7950   -32.8900 c          1 MU6       0.748000
      2 CAC          9.6640    -2.1200   -31.8790 c3         1 MU6      -0.298000
      3 CAD          9.0540    -0.7240   -31.6800 c          1 MU6       0.748000
      4 CAH         11.1250    -1.9820   -32.4080 c3         1 MU6      -0.020100
      5 CAI          9.7030    -2.9570   -30.5620 c3         1 MU6      -0.020100
      6 OAA          7.5740    -3.0320   -32.5500 o          1 MU6      -0.774500
      7 OAE          9.0480     0.0510   -32.6260 o          1 MU6      -0.774500
      8 OAF          9.1650    -3.1620   -33.9720 o          1 MU6      -0.774500
      9 OAG          8.6710    -0.3850   -30.5680 o          1 MU6      -0.774500
     10 H1          11.7440    -1.4370   -31.6850 hc         1 MU6      -0.009800
     11 H2          11.5820    -2.9680   -32.5620 hc         1 MU6      -0.009800
     12 H3          11.1660    -1.4370   -33.3580 hc         1 MU6      -0.009800
     13 H4          10.3640    -2.4920   -29.8200 hc         1 MU6      -0.009800
     14 H5           8.7080    -3.0580   -30.1120 hc         1 MU6      -0.009800
     15 H6          10.0820    -3.9670   -30.7610 hc         1 MU6      -0.009800
@<TRIPOS>BOND
     1     1     2 1   
     2     1     6 1   
     3     1     8 1   
     4     2     3 1   
     5     2     4 1   
     6     2     5 1   
     7     3     7 1   
     8     3     9 1   
     9     4    10 1   
    10     4    11 1   
    11     4    12 1   
    12     5    13 1   
    13     5    14 1   
    14     5    15 1   
@<TRIPOS>SUBSTRUCTURE
     1 MU6         1 TEMP              0 ****  ****    0 ROOT
