@<TRIPOS>MOLECULE
MU6
   15    14     1     0     0
SMALL
bcc


@<TRIPOS>ATOM
      1 CAB          8.7400    -2.8410   -32.8870 c          1 MU6       0.958600
      2 CAC          9.6690    -2.1160   -31.8770 c3         1 MU6      -0.298000
      3 CAD          9.0790    -0.7000   -31.6420 c          1 MU6       0.958600
      4 CAH         11.0950    -1.9700   -32.4060 c3         1 MU6      -0.020100
      5 CAI          9.7060    -2.9510   -30.5960 c3         1 MU6      -0.020100
      6 OAA          7.5280    -2.8790   -32.5760 o          1 MU6      -0.879800
      7 OAE          9.0680     0.0580   -32.6370 o          1 MU6      -0.879800
      8 OAF          9.2470    -3.3520   -33.9070 o          1 MU6      -0.879800
      9 OAG          8.6690    -0.4040   -30.5000 o          1 MU6      -0.879800
     10 H1          11.7200    -1.4290   -31.6890 hc         1 MU6      -0.009800
     11 H2          11.5630    -2.9420   -32.5720 hc         1 MU6      -0.009800
     12 H3          11.1240    -1.4220   -33.3460 hc         1 MU6      -0.009800
     13 H4          10.3490    -2.4950   -29.8400 hc         1 MU6      -0.009800
     14 H5           8.7160    -3.0710   -30.1580 hc         1 MU6      -0.009800
     15 H6          10.1020    -3.9500   -30.7990 hc         1 MU6      -0.009800
@<TRIPOS>BOND
     1     1     2 1   
     2     1     6 1   
     3     1     8 1   
     4     2     3 1   
     5     2     4 1   
     6     2     5 1   
     7     3     7 1   
     8     3     9 1   
     9     4    10 1   
    10     4    11 1   
    11     4    12 1   
    12     5    13 1   
    13     5    14 1   
    14     5    15 1   
@<TRIPOS>SUBSTRUCTURE
     1 MU6         1 TEMP              0 ****  ****    0 ROOT
