@<TRIPOS>MOLECULE
MU7
   46    48     1     0     0
SMALL
abcg2


@<TRIPOS>ATOM
      1 I            2.5550    -6.8830    21.8310 i          1 MU7      -0.293000
      2 C18          2.4490    -7.7780    19.9260 ca         1 MU7       0.235000
      3 C17          1.2180    -8.2770    19.5230 ca         1 MU7      -0.089000
      4 C16          1.1030    -8.9150    18.2950 ca         1 MU7      -0.098000
      5 C15          2.2150    -9.0660    17.4810 ca         1 MU7      -0.101000
      6 C14          3.4420    -8.5760    17.8980 ca         1 MU7      -0.092000
      7 C13          3.5760    -7.9200    19.1210 ca         1 MU7      -0.121600
      8 C12          4.9090    -7.3360    19.4860 c          1 MU7       0.605700
      9 O3           5.0350    -6.1490    19.7400 o          1 MU7      -0.576100
     10 N1           5.9230    -8.2130    19.4710 ns         1 MU7      -0.497900
     11 C11          7.2790    -7.8510    19.8140 c3         1 MU7       0.103000
     12 C10          7.5300    -7.9140    21.3250 c3         1 MU7      -0.047200
     13 C9           8.9190    -7.4900    21.6880 cc         1 MU7      -0.188400
     14 C19          9.1820    -6.2900    22.2500 cd         1 MU7      -0.076200
     15 C6          10.5090    -5.8730    22.5860 ca         1 MU7      -0.119800
     16 C4          10.8030    -4.6280    23.1780 ca         1 MU7       0.127100
     17 O1           9.7800    -3.7700    23.4430 os         1 MU7      -0.357100
     18 C5           9.3310    -3.7950    24.7930 c3         1 MU7       0.147900
     19 C3          12.1060    -4.2960    23.4620 ca         1 MU7      -0.132000
     20 C2          13.1480    -5.1830    23.1630 ca         1 MU7      -0.144000
     21 C8          10.0130    -8.4130    21.3960 c          1 MU7       0.558200
     22 O2           9.8550    -9.5210    20.8940 o          1 MU7      -0.565000
     23 N           11.2620    -7.9620    21.7210 ns         1 MU7      -0.359100
     24 C7          11.5540    -6.7520    22.2940 ca         1 MU7       0.083600
     25 C1          12.8890    -6.4080    22.5850 ca         1 MU7       0.085100
     26 O           13.8080    -7.3350    22.2550 os         1 MU7      -0.352100
     27 C           15.1680    -7.0560    22.5280 c3         1 MU7       0.151900
     28 H1           0.3470    -8.1760    20.1550 ha         1 MU7       0.129000
     29 H2           0.1390    -9.2940    17.9830 ha         1 MU7       0.119000
     30 H3           2.1290    -9.5640    16.5240 ha         1 MU7       0.120000
     31 H4           4.3090    -8.6880    17.2590 ha         1 MU7       0.122000
     32 H5           5.7130    -9.1910    19.3510 hn         1 MU7       0.319500
     33 H6           7.9460    -8.5340    19.2900 h1         1 MU7       0.065200
     34 H7           7.4830    -6.8470    19.4430 h1         1 MU7       0.065200
     35 H8           6.8140    -7.2640    21.8310 hc         1 MU7       0.061700
     36 H9           7.3430    -8.9320    21.6740 hc         1 MU7       0.061700
     37 H10          8.3620    -5.6130    22.4570 ha         1 MU7       0.206000
     38 H11         10.1210    -3.4940    25.4850 h1         1 MU7       0.038367
     39 H12          8.5060    -3.0900    24.8710 h1         1 MU7       0.038367
     40 H13          8.9760    -4.7890    25.0780 h1         1 MU7       0.038367
     41 H14         12.3380    -3.3400    23.9130 ha         1 MU7       0.128000
     42 H15         14.1610    -4.8840    23.3950 ha         1 MU7       0.122000
     43 H16         12.0300    -8.5890    21.5160 hn         1 MU7       0.342500
     44 H17         15.7330    -7.9230    22.1970 h1         1 MU7       0.044367
     45 H18         15.5160    -6.1760    21.9830 h1         1 MU7       0.044367
     46 H19         15.3410    -6.9050    23.5960 h1         1 MU7       0.044367
@<TRIPOS>BOND
     1     1     2 1   
     2     2     3 ar  
     3     2     7 ar  
     4     3     4 ar  
     5     3    28 1   
     6     4     5 ar  
     7     4    29 1   
     8     5     6 ar  
     9     5    30 1   
    10     6     7 ar  
    11     6    31 1   
    12     7     8 1   
    13     8     9 2   
    14     8    10 1   
    15    10    11 1   
    16    10    32 1   
    17    11    12 1   
    18    11    33 1   
    19    11    34 1   
    20    12    13 1   
    21    12    35 1   
    22    12    36 1   
    23    13    14 2   
    24    13    21 1   
    25    14    15 1   
    26    14    37 1   
    27    15    16 ar  
    28    15    24 ar  
    29    16    17 1   
    30    16    19 ar  
    31    17    18 1   
    32    18    38 1   
    33    18    39 1   
    34    18    40 1   
    35    19    20 ar  
    36    19    41 1   
    37    20    25 ar  
    38    20    42 1   
    39    21    22 2   
    40    21    23 1   
    41    23    24 1   
    42    23    43 1   
    43    24    25 ar  
    44    25    26 1   
    45    26    27 1   
    46    27    44 1   
    47    27    45 1   
    48    27    46 1   
@<TRIPOS>SUBSTRUCTURE
     1 MU7         1 TEMP              0 ****  ****    0 ROOT
