@<TRIPOS>MOLECULE
MU7
   46    48     1     0     0
SMALL
No Charge or Current Charge


@<TRIPOS>ATOM
      1 I            1.9250    -7.0340    21.8300 i          1 MU7      -0.293000
      2 C18          2.1480    -7.9090    19.8400 ca         1 MU7       0.235000
      3 C17          0.9850    -8.4690    19.2830 ca         1 MU7      -0.089000
      4 C16          1.0240    -9.1120    18.0370 ca         1 MU7      -0.098000
      5 C15          2.2360    -9.2020    17.3400 ca         1 MU7      -0.101000
      6 C14          3.4060    -8.6490    17.8870 ca         1 MU7      -0.092000
      7 C13          3.3830    -7.9900    19.1440 ca         1 MU7      -0.121600
      8 C12          4.6540    -7.3870    19.6940 c          1 MU7       0.605700
      9 O3           4.6790    -6.3700    20.3700 o          1 MU7      -0.576100
     10 N1           5.8230    -8.0150    19.3140 ns         1 MU7      -0.497900
     11 C11          7.1690    -7.5980    19.7210 c3         1 MU7       0.103000
     12 C10          7.5000    -8.0110    21.1700 c3         1 MU7      -0.047200
     13 C9           8.8840    -7.5760    21.6040 cc         1 MU7      -0.188400
     14 C19          9.1240    -6.4630    22.3930 cd         1 MU7      -0.076200
     15 C6          10.4870    -6.0770    22.7910 ca         1 MU7      -0.119800
     16 C4          10.7420    -4.9450    23.5940 ca         1 MU7       0.127100
     17 O1           9.6700    -4.1800    24.0170 os         1 MU7      -0.357100
     18 C5           9.8330    -3.0090    24.8380 c3         1 MU7       0.147900
     19 C3          12.0750    -4.6270    23.9430 ca         1 MU7      -0.132000
     20 C2          13.1410    -5.4280    23.4950 ca         1 MU7      -0.144000
     21 C8          10.0240    -8.4210    21.1330 c          1 MU7       0.558200
     22 O2           9.9110    -9.4180    20.4340 o          1 MU7      -0.565000
     23 N           11.2590    -7.9930    21.5480 ns         1 MU7      -0.359100
     24 C7          11.5550    -6.8730    22.3470 ca         1 MU7       0.083600
     25 C1          12.8860    -6.5610    22.6910 ca         1 MU7       0.085100
     26 O           13.8990    -7.3820    22.2250 os         1 MU7      -0.352100
     27 C           15.2860    -7.1400    22.5250 c3         1 MU7       0.151900
     28 H1           0.0480    -8.4110    19.8300 ha         1 MU7       0.129000
     29 H2           0.1180    -9.5420    17.6150 ha         1 MU7       0.119000
     30 H3           2.2700    -9.6970    16.3720 ha         1 MU7       0.120000
     31 H4           4.3240    -8.7150    17.3080 ha         1 MU7       0.122000
     32 H5           5.7270    -8.8550    18.7570 hn         1 MU7       0.319500
     33 H6           7.8970    -8.0520    19.0350 h1         1 MU7       0.065200
     34 H7           7.2530    -6.5070    19.6220 h1         1 MU7       0.065200
     35 H8           6.7500    -7.5790    21.8440 hc         1 MU7       0.061700
     36 H9           7.3960    -9.1000    21.2660 hc         1 MU7       0.061700
     37 H10          8.2800    -5.8620    22.7230 ha         1 MU7       0.206000
     38 H11         10.4490    -2.2570    24.3280 h1         1 MU7       0.038367
     39 H12          8.8570    -2.5580    25.0540 h1         1 MU7       0.038367
     40 H13         10.3070    -3.2660    25.7940 h1         1 MU7       0.038367
     41 H14         12.3030    -3.7620    24.5590 ha         1 MU7       0.128000
     42 H15         14.1530    -5.1550    23.7810 ha         1 MU7       0.122000
     43 H16         12.0480    -8.5470    21.2430 hn         1 MU7       0.342500
     44 H17         15.9150    -7.9080    22.0580 h1         1 MU7       0.044367
     45 H18         15.6030    -6.1620    22.1430 h1         1 MU7       0.044367
     46 H19         15.4610    -7.1700    23.6080 h1         1 MU7       0.044367
@<TRIPOS>BOND
     1     1     2 1   
     2     2     3 ar  
     3     2     7 ar  
     4     3     4 ar  
     5     3    28 1   
     6     4     5 ar  
     7     4    29 1   
     8     5     6 ar  
     9     5    30 1   
    10     6     7 ar  
    11     6    31 1   
    12     7     8 1   
    13     8     9 2   
    14     8    10 1   
    15    10    11 1   
    16    10    32 1   
    17    11    12 1   
    18    11    33 1   
    19    11    34 1   
    20    12    13 1   
    21    12    35 1   
    22    12    36 1   
    23    13    14 2   
    24    13    21 1   
    25    14    15 1   
    26    14    37 1   
    27    15    16 ar  
    28    15    24 ar  
    29    16    17 1   
    30    16    19 ar  
    31    17    18 1   
    32    18    38 1   
    33    18    39 1   
    34    18    40 1   
    35    19    20 ar  
    36    19    41 1   
    37    20    25 ar  
    38    20    42 1   
    39    21    22 2   
    40    21    23 1   
    41    23    24 1   
    42    23    43 1   
    43    24    25 ar  
    44    25    26 1   
    45    26    27 1   
    46    27    44 1   
    47    27    45 1   
    48    27    46 1   
@<TRIPOS>SUBSTRUCTURE
     1 MU7         1 TEMP              0 ****  ****    0 ROOT
