@<TRIPOS>MOLECULE
MU8
   57    61     1     0     0
SMALL
bcc


@<TRIPOS>ATOM
      1 C1           6.7370    34.9050     9.0810 c5         1 MU8      -0.035400
      2 C2           7.1690    34.5510     7.6570 c5         1 MU8       0.116000
      3 C11          7.9520    37.1080     9.3190 ca         1 MU8      -0.121000
      4 C12          3.7910    35.2720     6.8640 c          1 MU8       0.682100
      5 C15          1.3530    35.7290     6.7020 ca         1 MU8       0.089600
      6 C16          1.3460    36.5430     5.5680 ca         1 MU8      -0.149000
      7 C17         -1.0480    36.8560     5.7890 ca         1 MU8      -0.150000
      8 C18         -1.0210    36.0420     6.9110 ca         1 MU8       0.057400
      9 C19          0.1490    37.0930     5.1330 ca         1 MU8      -0.095000
     10 C20          0.1530    35.4800     7.3740 ca         1 MU8      -0.185000
     11 C23          6.9870    32.7420     5.3160 ca         1 MU8      -0.102600
     12 C24          7.1260    31.3720     5.0790 ca         1 MU8      -0.114000
     13 C25          9.0010    33.2140     4.0670 ca         1 MU8      -0.079000
     14 C26          7.9100    33.6550     4.8130 ca         1 MU8      -0.139000
     15 C28          9.1610    31.8600     3.8570 ca         1 MU8      -0.161300
     16 C29          8.2320    30.9600     4.3610 ca         1 MU8       0.137100
     17 C31          9.8770    29.6670     3.5600 c5         1 MU8       0.128400
     18 C32         10.1710    31.0860     3.0540 c5         1 MU8       0.181800
     19 C4           4.7580    34.5320     7.7780 c5         1 MU8       0.024700
     20 C5           5.3300    35.4630     8.8520 c5         1 MU8      -0.082400
     21 N13          2.4940    35.1220     7.2290 ns         1 MU8      -0.465100
     22 N3           5.9300    34.0870     7.0490 n          1 MU8      -0.467800
     23 N33          9.8600    31.2060     1.6350 n8         1 MU8      -0.869800
     24 O14          4.1810    35.9660     5.9480 o          1 MU8      -0.564100
     25 O27          4.6670    32.7450     5.7770 o          1 MU8      -0.592100
     26 O30          8.5330    29.6800     4.0750 os         1 MU8      -0.293900
     27 C10          9.1840    36.2510    11.6490 ca         1 MU8      -0.126000
     28 C6           7.6800    35.8280     9.8010 ca         1 MU8      -0.081300
     29 C7           8.3070    35.4130    10.9720 ca         1 MU8      -0.121000
     30 C8           9.4470    37.5230    11.1610 ca         1 MU8      -0.123000
     31 C9           8.8270    37.9490     9.9920 ca         1 MU8      -0.126000
     32 CL          -2.4950    35.7190     7.7650 cl         1 MU8      -0.115400
     33 H1           6.6540    33.9770     9.6530 hc         1 MU8       0.062700
     34 H2           7.9390    33.7810     7.6360 h1         1 MU8       0.059700
     35 H3           7.5560    35.4350     7.1420 h1         1 MU8       0.059700
     36 H4           7.4780    37.4600     8.4100 ha         1 MU8       0.131500
     37 H5           2.2530    36.7470     5.0250 ha         1 MU8       0.170000
     38 H6          -1.9730    37.2920     5.4390 ha         1 MU8       0.149000
     39 H7           0.1530    37.7230     4.2530 ha         1 MU8       0.137000
     40 H8           0.1410    34.8500     8.2540 ha         1 MU8       0.142000
     41 H9           6.4040    30.6620     5.4600 ha         1 MU8       0.164000
     42 H10          9.7090    33.9280     3.6650 ha         1 MU8       0.133000
     43 H11          7.7770    34.7150     4.9800 ha         1 MU8       0.144000
     44 H12          9.9420    28.9120     2.7770 h1         1 MU8       0.062700
     45 H13         10.5560    29.3980     4.3720 h1         1 MU8       0.062700
     46 H14         11.2000    31.3690     3.3050 h1         1 MU8       0.041700
     47 H15          4.2610    33.6760     8.2460 h1         1 MU8       0.067700
     48 H16          5.3910    36.4890     8.4800 hc         1 MU8       0.066700
     49 H17          4.7200    35.4680     9.7530 hc         1 MU8       0.066700
     50 H18          2.3250    34.5010     8.0080 hn         1 MU8       0.319500
     51 H19          9.9490    32.1750     1.3540 hn         1 MU8       0.342300
     52 H20         10.5610    30.7050     1.1010 hn         1 MU8       0.342300
     53 H22          9.6600    35.9090    12.5590 ha         1 MU8       0.133000
     54 H23          8.1080    34.4200    11.3590 ha         1 MU8       0.131500
     55 H24         10.1300    38.1780    11.6840 ha         1 MU8       0.133000
     56 H25          9.0240    38.9400     9.6040 ha         1 MU8       0.133000
     57 C22          5.7730    33.1890     6.0600 c          1 MU8       0.688700
@<TRIPOS>BOND
     1     1     2 1   
     2     1    20 1   
     3     1    28 1   
     4     1    33 1   
     5     2    22 1   
     6     2    34 1   
     7     2    35 1   
     8     3    28 ar  
     9     3    31 ar  
    10     3    36 1   
    11     4    19 1   
    12     4    21 1   
    13     4    24 2   
    14     5     6 ar  
    15     5    10 ar  
    16     5    21 1   
    17     6     9 ar  
    18     6    37 1   
    19     7     8 ar  
    20     7     9 ar  
    21     7    38 1   
    22     8    10 ar  
    23     8    32 1   
    24     9    39 1   
    25    10    40 1   
    26    11    12 ar  
    27    11    14 ar  
    28    11    57 1   
    29    12    16 ar  
    30    12    41 1   
    31    13    14 ar  
    32    13    15 ar  
    33    13    42 1   
    34    14    43 1   
    35    15    16 ar  
    36    15    18 1   
    37    16    26 1   
    38    17    18 1   
    39    17    26 1   
    40    17    44 1   
    41    17    45 1   
    42    18    23 1   
    43    18    46 1   
    44    19    20 1   
    45    19    22 1   
    46    19    47 1   
    47    20    48 1   
    48    20    49 1   
    49    21    50 1   
    50    22    57 1   
    51    23    51 1   
    52    23    52 1   
    53    25    57 2   
    54    27    29 ar  
    55    27    30 ar  
    56    27    53 1   
    57    28    29 ar  
    58    29    54 1   
    59    30    31 ar  
    60    30    55 1   
    61    31    56 1   
@<TRIPOS>SUBSTRUCTURE
     1 MU8         1 TEMP              0 ****  ****    0 ROOT
