@<TRIPOS>MOLECULE
MU8
   57    61     1     0     0
SMALL
No Charge or Current Charge


@<TRIPOS>ATOM
      1 C1           6.5270    34.8130     9.0920 c5         1 MU8      -0.035400
      2 C2           7.1320    34.2470     7.7760 c5         1 MU8       0.116000
      3 C11          8.0750    36.8900     9.0820 ca         1 MU8      -0.103000
      4 C12          3.6930    35.2590     6.6290 c          1 MU8       0.615100
      5 C15          1.2200    35.9250     6.8470 ca         1 MU8      -0.003000
      6 C16          1.0140    36.5210     5.5810 ca         1 MU8      -0.131000
      7 C17         -1.3060    36.9900     6.1560 ca         1 MU8      -0.132000
      8 C18         -1.1080    36.4010     7.4130 ca         1 MU8       0.149000
      9 C19         -0.2440    37.0500     5.2400 ca         1 MU8      -0.077000
     10 C20          0.1470    35.8720     7.7560 ca         1 MU8      -0.167000
     11 C23          7.0890    32.5370     5.2730 ca         1 MU8      -0.102600
     12 C24          7.2460    31.1910     4.8610 ca         1 MU8      -0.096000
     13 C25          9.2320    33.0850     4.1890 ca         1 MU8      -0.061000
     14 C26          8.0890    33.4820     4.9120 ca         1 MU8      -0.121000
     15 C28          9.3650    31.7380     3.8200 ca         1 MU8      -0.161300
     16 C29          8.3970    30.8200     4.1550 ca         1 MU8       0.137100
     17 C31         10.0610    29.5850     3.3000 c5         1 MU8       0.151600
     18 C32         10.4680    31.0960     3.0430 c5         1 MU8       0.181800
     19 C4           4.6810    34.5460     7.6080 c5         1 MU8       0.024700
     20 C5           5.2980    35.6040     8.5700 c5         1 MU8      -0.082400
     21 N13          2.4610    35.3710     7.2630 ns         1 MU8      -0.139000
     22 N3           5.9120    33.9890     6.9700 n          1 MU8      -0.400800
     23 N33         10.3840    31.5460     1.6420 n8         1 MU8      -0.980200
     24 O14          3.9450    35.6460     5.4910 o          1 MU8      -0.564100
     25 O27          4.7660    32.3940     5.7940 o          1 MU8      -0.592100
     26 O30          8.6530    29.5490     3.7210 os         1 MU8      -0.317100
     27 C10          8.8170    36.3970    11.7420 ca         1 MU8      -0.108000
     28 C6           7.5230    35.7750     9.7570 ca         1 MU8      -0.081300
     29 C7           7.9080    35.5430    11.0940 ca         1 MU8      -0.103000
     30 C8           9.3560    37.4980    11.0600 ca         1 MU8      -0.105000
     31 C9           8.9840    37.7440     9.7290 ca         1 MU8      -0.108000
     32 Cl          -2.4350    36.3240     8.5650 cl         1 MU8      -0.207000
     33 H1           6.2140    33.9990     9.7580 hc         1 MU8       0.062700
     34 H2           7.7170    33.3350     7.9580 h1         1 MU8       0.059700
     35 H3           7.7790    34.9770     7.2750 h1         1 MU8       0.059700
     36 H4           7.8040    37.1040     8.0510 ha         1 MU8       0.113500
     37 H5           1.8120    36.5850     4.8480 ha         1 MU8       0.152000
     38 H6          -2.2780    37.3980     5.8940 ha         1 MU8       0.131000
     39 H7          -0.3940    37.5060     4.2630 ha         1 MU8       0.119000
     40 H8           0.2820    35.4190     8.7350 ha         1 MU8       0.124000
     41 H9           6.4940    30.4430     5.1000 ha         1 MU8       0.146000
     42 H10          9.9900    33.8150     3.9110 ha         1 MU8       0.115000
     43 H11          7.9670    34.5340     5.1550 ha         1 MU8       0.126000
     44 H12         10.2040    28.9470     2.4190 h1         1 MU8       0.062700
     45 H13         10.6650    29.1700     4.1170 h1         1 MU8       0.062700
     46 H14         11.4600    31.3420     3.4480 h1         1 MU8       0.041700
     47 H15          4.1450    33.7610     8.1590 h1         1 MU8       0.067700
     48 H16          5.5790    36.5150     8.0280 hc         1 MU8       0.066700
     49 H17          4.6140    35.8970     9.3740 hc         1 MU8       0.066700
     50 H18          2.4420    34.9890     8.2000 hn         1 MU8       0.153000
     51 H19         10.4930    32.5660     1.6160 hn         1 MU8       0.397500
     52 H20         11.2020    31.2020     1.1270 hn         1 MU8       0.397500
     53 H22          9.1030    36.2030    12.7730 ha         1 MU8       0.115000
     54 H23          7.5000    34.6940    11.6380 ha         1 MU8       0.113500
     55 H24         10.0600    38.1600    11.5610 ha         1 MU8       0.115000
     56 H25          9.4000    38.5970     9.1980 ha         1 MU8       0.115000
     57 C22          5.8390    32.9350     6.0310 c          1 MU8       0.621700
@<TRIPOS>BOND
     1     1     2 1   
     2     1    20 1   
     3     1    28 1   
     4     1    33 1   
     5     2    22 1   
     6     2    34 1   
     7     2    35 1   
     8     3    28 ar  
     9     3    31 ar  
    10     3    36 1   
    11     4    19 1   
    12     4    21 1   
    13     4    24 2   
    14     5     6 ar  
    15     5    10 ar  
    16     5    21 1   
    17     6     9 ar  
    18     6    37 1   
    19     7     8 ar  
    20     7     9 ar  
    21     7    38 1   
    22     8    10 ar  
    23     8    32 1   
    24     9    39 1   
    25    10    40 1   
    26    11    12 ar  
    27    11    14 ar  
    28    11    57 1   
    29    12    16 ar  
    30    12    41 1   
    31    13    14 ar  
    32    13    15 ar  
    33    13    42 1   
    34    14    43 1   
    35    15    16 ar  
    36    15    18 1   
    37    16    26 1   
    38    17    18 1   
    39    17    26 1   
    40    17    44 1   
    41    17    45 1   
    42    18    23 1   
    43    18    46 1   
    44    19    20 1   
    45    19    22 1   
    46    19    47 1   
    47    20    48 1   
    48    20    49 1   
    49    21    50 1   
    50    22    57 1   
    51    23    51 1   
    52    23    52 1   
    53    25    57 2   
    54    27    29 ar  
    55    27    30 ar  
    56    27    53 1   
    57    28    29 ar  
    58    29    54 1   
    59    30    31 ar  
    60    30    55 1   
    61    31    56 1   
@<TRIPOS>SUBSTRUCTURE
     1 MU8         1 TEMP              0 ****  ****    0 ROOT
