@<TRIPOS>MOLECULE
MU9
   57    59     1     0     0
SMALL
No Charge or Current Charge


@<TRIPOS>ATOM
      1 C13         17.9330    21.9070     2.9460 ca         1 MU9      -0.055000
      2 C18         15.4280    16.9390    -0.9190 c6         1 MU9      -0.121400
      3 C17         14.1350    16.6260    -0.1390 c6         1 MU9       0.169000
      4 C16         14.0130    17.4620     1.1500 c6         1 MU9      -0.121400
      5 C15         14.1570    18.9810     0.8520 c6         1 MU9      -0.080400
      6 C19         15.5830    18.4650    -1.1920 c6         1 MU9      -0.080400
      7 C20         15.5410    22.6680    -2.1280 c6         1 MU9       0.101500
      8 C11         19.7790    20.8260     1.7840 ca         1 MU9      -0.055000
      9 C12         19.3000    21.8410     2.6300 ca         1 MU9       0.063000
     10 C1          20.8190    24.7120    -3.0760 c          1 MU9       0.590100
     11 C2          22.3190    24.3910    -3.0790 c3         1 MU9       0.038600
     12 C4          17.9080    23.6320    -2.0320 c6         1 MU9      -0.084700
     13 C5          18.3530    22.3050    -1.3620 c6         1 MU9      -0.094900
     14 C6          17.4400    21.1250    -1.7720 c6         1 MU9       0.101500
     15 C7          15.3800    20.9280    -0.3100 c          1 MU9       0.593100
     16 C8          15.4730    19.3710     0.0930 c6         1 MU9       0.193200
     17 C9          17.5120    19.9660     1.5340 ca         1 MU9       0.343000
     18 C10         18.8830    19.8860     1.2440 ca         1 MU9      -0.190500
     19 C14         17.0430    20.9620     2.4030 ca         1 MU9      -0.190500
     20 O1          20.1990    24.9980    -4.0930 o          1 MU9      -0.606100
     21 N2          16.0070    21.4090    -1.4860 n          1 MU9      -0.403800
     22 O2          14.7980    21.7340     0.4150 o          1 MU9      -0.610100
     23 N3          16.6470    19.0310     0.9710 nu         1 MU9      -0.997200
     24 Cl2         20.4150    23.0270     3.2960 cl         1 MU9      -0.218000
     25 F2          14.1070    15.2590     0.1870 f          1 MU9      -0.123000
     26 C21         16.4090    23.8850    -1.7290 c6         1 MU9      -0.094900
     27 H1          17.5650    22.6850     3.6100 ha         1 MU9       0.128500
     28 H2          15.4270    16.3900    -1.8710 hc         1 MU9       0.071450
     29 H3          16.2940    16.5670    -0.3560 hc         1 MU9       0.071450
     30 H4          13.0460    17.2650     1.6330 hc         1 MU9       0.071450
     31 H5          14.7840    17.1490     1.8670 hc         1 MU9       0.071450
     32 H6          14.0990    19.5350     1.7980 hc         1 MU9       0.072450
     33 H7          13.2910    19.3110     0.2610 hc         1 MU9       0.072450
     34 H8          16.5330    18.6130    -1.7150 hc         1 MU9       0.072450
     35 H9          14.8060    18.7730    -1.9060 hc         1 MU9       0.072450
     36 H10         15.5780    22.5400    -3.2200 h1         1 MU9       0.056950
     37 H11         14.4900    22.8600    -1.8660 h1         1 MU9       0.056950
     38 H12         20.8390    20.7720     1.5460 ha         1 MU9       0.128500
     39 H13         22.7130    24.5460    -4.0900 h1         1 MU9       0.096700
     40 H14         22.8260    25.0690    -2.3830 h1         1 MU9       0.096700
     41 Cl1         22.6880    22.6710    -2.5750 cl         1 MU9      -0.281000
     42 H16         18.6350    25.0180    -0.5180 h1         1 MU9       0.064700
     43 H17         18.4460    25.7440    -2.1260 h1         1 MU9       0.064700
     44 H18         18.0300    23.5330    -3.1200 hc         1 MU9       0.062700
     45 H19         18.3290    22.4190    -0.2700 hc         1 MU9       0.054450
     46 H20         19.3900    22.0650    -1.6290 hc         1 MU9       0.054450
     47 H21         17.5580    20.9230    -2.8460 h1         1 MU9       0.056950
     48 H22         17.7800    20.2340    -1.2330 h1         1 MU9       0.056950
     49 H23         19.2550    19.1070     0.5850 ha         1 MU9       0.122500
     50 H24         15.9890    21.0070     2.6590 ha         1 MU9       0.122500
     51 H25         20.8070    24.3920    -1.0570 hn         1 MU9       0.329500
     52 H26         17.1160    18.1570     0.7370 hn         1 MU9       0.488000
     53 H27         16.2730    24.0900    -0.6580 hc         1 MU9       0.054450
     54 H28         16.0590    24.7770    -2.2660 hc         1 MU9       0.054450
     55 F1          13.0190    16.8600    -0.9620 f          1 MU9      -0.123000
     56 C3          18.7810    24.8440    -1.5920 c3         1 MU9       0.108000
     57 N1          20.2140    24.6500    -1.8380 ns         1 MU9      -0.491900
@<TRIPOS>BOND
     1     1     9 ar  
     2     1    19 ar  
     3     1    27 1   
     4     2     3 1   
     5     2     6 1   
     6     2    28 1   
     7     2    29 1   
     8     3     4 1   
     9     3    25 1   
    10     3    55 1   
    11     4     5 1   
    12     4    30 1   
    13     4    31 1   
    14     5    16 1   
    15     5    32 1   
    16     5    33 1   
    17     6    16 1   
    18     6    34 1   
    19     6    35 1   
    20     7    21 1   
    21     7    26 1   
    22     7    36 1   
    23     7    37 1   
    24     8     9 ar  
    25     8    18 ar  
    26     8    38 1   
    27     9    24 1   
    28    10    11 1   
    29    10    20 2   
    30    10    57 1   
    31    11    39 1   
    32    11    40 1   
    33    11    41 1   
    34    12    13 1   
    35    12    26 1   
    36    12    44 1   
    37    12    56 1   
    38    13    14 1   
    39    13    45 1   
    40    13    46 1   
    41    14    21 1   
    42    14    47 1   
    43    14    48 1   
    44    15    16 1   
    45    15    21 1   
    46    15    22 2   
    47    16    23 1   
    48    17    18 ar  
    49    17    19 ar  
    50    17    23 1   
    51    18    49 1   
    52    19    50 1   
    53    23    52 1   
    54    26    53 1   
    55    26    54 1   
    56    42    56 1   
    57    43    56 1   
    58    51    57 1   
    59    56    57 1   
@<TRIPOS>SUBSTRUCTURE
     1 MU9         1 TEMP              0 ****  ****    0 ROOT
