@<TRIPOS>MOLECULE
MU9
   57    59     1     0     0
SMALL
abcg2


@<TRIPOS>ATOM
      1 C13         17.5180    22.1790     2.5400 ca         1 MU9      -0.055000
      2 C18         15.3710    16.9660    -0.9300 c6         1 MU9      -0.121400
      3 C17         14.5070    16.6370     0.2640 c6         1 MU9       0.169000
      4 C16         14.6530    17.6050     1.4110 c6         1 MU9      -0.121400
      5 C15         14.4340    19.0440     0.9440 c6         1 MU9      -0.080400
      6 C19         15.2050    18.4290    -1.3530 c6         1 MU9      -0.080400
      7 C20         15.5540    22.9110    -1.9000 c6         1 MU9       0.101500
      8 C11         19.4920    20.8320     2.2500 ca         1 MU9      -0.055000
      9 C12         18.8610    21.9490     2.7850 ca         1 MU9       0.063000
     10 C1          20.9340    24.7520    -2.8080 c          1 MU9       0.590100
     11 C2          22.3370    24.3740    -3.2580 c3         1 MU9       0.038600
     12 C4          18.0160    23.4870    -1.8890 c6         1 MU9      -0.084700
     13 C5          18.3010    22.0090    -1.6140 c6         1 MU9      -0.094900
     14 C6          17.1660    21.1060    -2.0900 c6         1 MU9       0.101500
     15 C7          15.0390    20.8500    -0.7190 c          1 MU9       0.593100
     16 C8          15.4150    19.4280    -0.1910 c6         1 MU9       0.193200
     17 C9          17.4170    20.1870     1.1560 ca         1 MU9       0.343000
     18 C10         18.7740    19.9610     1.4510 ca         1 MU9      -0.190500
     19 C14         16.7960    21.3040     1.7380 ca         1 MU9      -0.190500
     20 O1          20.3580    25.6220    -3.4620 o          1 MU9      -0.606100
     21 N2          15.8820    21.5310    -1.5260 n          1 MU9      -0.403800
     22 O2          13.9470    21.3210    -0.3870 o          1 MU9      -0.610100
     23 N3          16.7860    19.3380     0.2810 nu         1 MU9      -0.997200
     24 CL2         19.7770    23.0750     3.7760 cl         1 MU9      -0.218000
     25 F2          14.7750    15.3470     0.6940 f          1 MU9      -0.123000
     26 C21         16.6240    23.8640    -1.3760 c6         1 MU9      -0.094900
     27 H1          17.0260    23.0460     2.9620 ha         1 MU9       0.128500
     28 H2          15.1050    16.3030    -1.7540 hc         1 MU9       0.071450
     29 H3          16.4040    16.7470    -0.6570 hc         1 MU9       0.071450
     30 H4          13.9360    17.3390     2.1880 hc         1 MU9       0.071450
     31 H5          15.6570    17.4830     1.8200 hc         1 MU9       0.071450
     32 H6          14.5590    19.7150     1.7910 hc         1 MU9       0.072450
     33 H7          13.4150    19.1710     0.5890 hc         1 MU9       0.072450
     34 H8          15.8880    18.6380    -2.1750 hc         1 MU9       0.072450
     35 H9          14.1940    18.5840    -1.7320 hc         1 MU9       0.072450
     36 H10         15.5010    22.9660    -2.9920 h1         1 MU9       0.056950
     37 H11         14.5780    23.1540    -1.4960 h1         1 MU9       0.056950
     38 H12         20.5390    20.6480     2.4480 ha         1 MU9       0.128500
     39 H13         22.2900    24.0510    -4.2940 h1         1 MU9       0.096700
     40 H14         22.9760    25.2500    -3.1790 h1         1 MU9       0.096700
     41 CL1         23.1440    23.0480    -2.3310 cl         1 MU9      -0.281000
     42 H16         19.0810    24.2380    -0.1700 h1         1 MU9       0.064700
     43 H17         18.8330    25.4370    -1.4440 h1         1 MU9       0.064700
     44 H18         18.0380    23.6510    -2.9720 hc         1 MU9       0.062700
     45 H19         18.4490    21.8660    -0.5430 hc         1 MU9       0.054450
     46 H20         19.2210    21.6990    -2.1140 hc         1 MU9       0.054450
     47 H21         17.0750    21.1720    -3.1800 h1         1 MU9       0.056950
     48 H22         17.3740    20.0770    -1.8400 h1         1 MU9       0.056950
     49 H23         19.2730    19.1020     1.0160 ha         1 MU9       0.122500
     50 H24         15.7560    21.5230     1.5530 ha         1 MU9       0.122500
     51 H25         20.9700    23.4240    -1.2930 hn         1 MU9       0.329500
     52 H26         17.3600    18.6140    -0.1140 hn         1 MU9       0.488000
     53 H27         16.6170    23.8340    -0.2820 hc         1 MU9       0.054450
     54 H28         16.3750    24.8850    -1.6780 hc         1 MU9       0.054450
     55 F1          13.1750    16.5990    -0.1380 f          1 MU9      -0.123000
     56 C3          19.0720    24.3920    -1.2500 c3         1 MU9       0.108000
     57 N1          20.4190    24.1400    -1.7400 ns         1 MU9      -0.491900
@<TRIPOS>BOND
     1     1     9 ar  
     2     1    19 ar  
     3     1    27 1   
     4     2     3 1   
     5     2     6 1   
     6     2    28 1   
     7     2    29 1   
     8     3     4 1   
     9     3    25 1   
    10     3    55 1   
    11     4     5 1   
    12     4    30 1   
    13     4    31 1   
    14     5    16 1   
    15     5    32 1   
    16     5    33 1   
    17     6    16 1   
    18     6    34 1   
    19     6    35 1   
    20     7    21 1   
    21     7    26 1   
    22     7    36 1   
    23     7    37 1   
    24     8     9 ar  
    25     8    18 ar  
    26     8    38 1   
    27     9    24 1   
    28    10    11 1   
    29    10    20 2   
    30    10    57 1   
    31    11    39 1   
    32    11    40 1   
    33    11    41 1   
    34    12    13 1   
    35    12    26 1   
    36    12    44 1   
    37    12    56 1   
    38    13    14 1   
    39    13    45 1   
    40    13    46 1   
    41    14    21 1   
    42    14    47 1   
    43    14    48 1   
    44    15    16 1   
    45    15    21 1   
    46    15    22 2   
    47    16    23 1   
    48    17    18 ar  
    49    17    19 ar  
    50    17    23 1   
    51    18    49 1   
    52    19    50 1   
    53    23    52 1   
    54    26    53 1   
    55    26    54 1   
    56    42    56 1   
    57    43    56 1   
    58    51    57 1   
    59    56    57 1   
@<TRIPOS>SUBSTRUCTURE
     1 MU9         1 TEMP              0 ****  ****    0 ROOT
