@<TRIPOS>MOLECULE
MUA
   19    20     1     0     0
SMALL
abcg2


@<TRIPOS>ATOM
      1 N1          -0.4070     0.0480    -2.2370 ns         1 MUA      -0.473500
      2 C2           0.9610     0.0590    -2.1040 c          1 MUA       0.629000
      3 O2           1.7160     0.0820    -3.0530 o          1 MUA      -0.542000
      4 N3           1.4120     0.0430    -0.8040 ns         1 MUA      -0.509600
      5 C4           0.5320     0.0180     0.2230 cc         1 MUA       0.169200
      6 C5          -0.8160     0.0040     0.0510 cd         1 MUA      -0.231600
      7 C6          -1.3930     0.0190    -1.2440 c          1 MUA       0.631200
      8 O6          -2.5780     0.0110    -1.5290 o          1 MUA      -0.521000
      9 N7          -1.3710    -0.0210     1.3220 ns         1 MUA      -0.463600
     10 C8          -0.3920    -0.0230     2.2630 c          1 MUA       0.587000
     11 N9           0.8100     0.0030     1.5460 n          1 MUA      -0.303000
     12 C10          2.1260     0.0150     2.1440 c3         1 MUA       0.091300
     13 O8          -0.4940    -0.0420     3.4750 o          1 MUA      -0.552000
     14 HN1         -0.7420     0.0600    -3.1930 hn         1 MUA       0.349500
     15 HN3          2.4120     0.0470    -0.6530 hn         1 MUA       0.471000
     16 HN7         -2.3550    -0.0330     1.5370 hn         1 MUA       0.488000
     17 H101         2.0110     0.0200     3.2240 h1         1 MUA       0.060033
     18 H102         2.6880    -0.8710     1.8560 h1         1 MUA       0.060033
     19 H103         2.6730     0.9080     1.8480 h1         1 MUA       0.060033
@<TRIPOS>BOND
     1     1     2 1   
     2     1     7 1   
     3     1    14 1   
     4     2     3 2   
     5     2     4 1   
     6     4     5 1   
     7     4    15 1   
     8     5     6 2   
     9     5    11 1   
    10     6     7 1   
    11     6     9 1   
    12     7     8 2   
    13     9    10 1   
    14     9    16 1   
    15    10    11 1   
    16    10    13 2   
    17    11    12 1   
    18    12    17 1   
    19    12    18 1   
    20    12    19 1   
@<TRIPOS>SUBSTRUCTURE
     1 MUA         1 TEMP              0 ****  ****    0 ROOT
