@<TRIPOS>MOLECULE
MUA
   19    20     1     0     0
SMALL
No Charge or Current Charge


@<TRIPOS>ATOM
      1 N1          -0.4340     0.0630    -2.2900 ns         1 MUA      -0.473500
      2 C2           0.9280     0.0890    -2.1590 c          1 MUA       0.629000
      3 O2           1.6770     0.1270    -3.1150 o          1 MUA      -0.542000
      4 N3           1.3880     0.0690    -0.8700 ns         1 MUA      -0.509600
      5 C4           0.5710     0.0270     0.2280 cc         1 MUA       0.169200
      6 C5          -0.7710     0.0010     0.0460 cd         1 MUA      -0.231600
      7 C6          -1.3800     0.0190    -1.3020 c          1 MUA       0.631200
      8 O6          -2.5790    -0.0020    -1.5300 o          1 MUA      -0.521000
      9 N7          -1.3390    -0.0430     1.3120 ns         1 MUA      -0.463600
     10 C8          -0.3900    -0.0480     2.2950 c          1 MUA       0.587000
     11 N9           0.8210     0.0000     1.5880 n          1 MUA      -0.303000
     12 C10          2.1450     0.0080     2.2340 c3         1 MUA       0.091300
     13 O8          -0.5690    -0.0860     3.5010 o          1 MUA      -0.552000
     14 HN1         -0.7840     0.0770    -3.2340 hn         1 MUA       0.349500
     15 HN3          2.3950     0.0860    -0.7660 hn         1 MUA       0.471000
     16 HN7         -2.3300    -0.0740     1.5460 hn         1 MUA       0.488000
     17 H101         2.0480     0.2540     3.2990 h1         1 MUA       0.060033
     18 H102         2.6090    -0.9810     2.1350 h1         1 MUA       0.060033
     19 H103         2.7870     0.7580     1.7550 h1         1 MUA       0.060033
@<TRIPOS>BOND
     1     1     2 1   
     2     1     7 1   
     3     1    14 1   
     4     2     3 2   
     5     2     4 1   
     6     4     5 1   
     7     4    15 1   
     8     5     6 2   
     9     5    11 1   
    10     6     7 1   
    11     6     9 1   
    12     7     8 2   
    13     9    10 1   
    14     9    16 1   
    15    10    11 1   
    16    10    13 2   
    17    11    12 1   
    18    12    17 1   
    19    12    18 1   
    20    12    19 1   
@<TRIPOS>SUBSTRUCTURE
     1 MUA         1 TEMP              0 ****  ****    0 ROOT
