@<TRIPOS>MOLECULE
MUB
   38    38     1     0     0
SMALL
abcg2


@<TRIPOS>ATOM
      1 C1           1.4580     2.3880     1.7430 c6         1 MUB       0.382300
      2 C2           1.2520     1.4010     0.5900 c6         1 MUB       0.044700
      3 C3           0.0460     0.5020     0.8810 c6         1 MUB       0.153300
      4 C4          -1.1990     1.3240     1.2530 c6         1 MUB       0.100300
      5 C5          -0.8870     2.4090     2.2830 c6         1 MUB       0.165300
      6 C6          -0.8360     1.9080     3.7330 c3         1 MUB       0.126600
      7 C7           1.9950     2.0880    -1.6640 c          1 MUB       0.596100
      8 C8           1.5750     2.8230    -2.9120 c3         1 MUB      -0.181100
      9 C9          -0.1530    -1.6350     1.8950 c3         1 MUB       0.019300
     10 C10          0.5160    -2.5280     0.8230 c          1 MUB       0.696000
     11 C11         -0.0020    -2.2460     3.2790 c3         1 MUB      -0.066100
     12 O1           2.4810     3.2820     1.5060 oh         1 MUB      -0.640000
     13 O3           0.4030    -0.3360     1.9470 os         1 MUB      -0.456000
     14 O4          -1.7230     1.9800     0.1100 oh         1 MUB      -0.741000
     15 O5           0.2800     3.1400     1.9500 os         1 MUB      -0.507000
     16 O6          -2.0710     1.3720     4.1470 oh         1 MUB      -0.709000
     17 O7           3.0740     1.5180    -1.5870 o          1 MUB      -0.590100
     18 O11         -0.0480    -3.6250     0.6360 o          1 MUB      -0.720000
     19 O10          1.5410    -2.0990     0.2650 o          1 MUB      -0.720000
     20 N2           1.0950     2.1150    -0.6580 ns         1 MUB      -0.509900
     21 H1           1.7380     1.8380     2.6490 h2         1 MUB       0.086700
     22 H2           2.1270     0.7570     0.5010 h1         1 MUB       0.138700
     23 HN2          0.2030     2.5570    -0.8240 hn         1 MUB       0.321500
     24 H81          2.3380     3.5540    -3.1780 hc         1 MUB       0.051700
     25 H82          1.5020     2.1150    -3.7380 hc         1 MUB       0.051700
     26 H83          0.6220     3.3400    -2.8160 hc         1 MUB       0.051700
     27 H3          -0.1670    -0.0780    -0.0270 h1         1 MUB       0.074700
     28 H9          -1.2270    -1.5740     1.6650 h1         1 MUB       0.010700
     29 H111         1.0500    -2.3350     3.5590 hc         1 MUB       0.027700
     30 H112        -0.4410    -3.2420     3.2970 hc         1 MUB       0.027700
     31 H113        -0.5070    -1.6390     4.0310 hc         1 MUB       0.027700
     32 H4A         -1.9520     0.6540     1.6860 h1         1 MUB       0.062700
     33 H5          -1.6990     3.1440     2.2310 h1         1 MUB       0.058700
     34 H61         -0.5250     2.7490     4.3650 h1         1 MUB       0.061700
     35 H62         -0.1010     1.1150     3.8590 h1         1 MUB       0.061700
     36 HO6         -2.7220     2.0810     4.1550 ho         1 MUB       0.485000
     37 H4          -2.0030     1.3080    -0.5210 ho         1 MUB       0.505000
     38 HO1          2.3500     3.6790     0.6350 ho         1 MUB       0.450000
@<TRIPOS>BOND
     1     1     2 1   
     2     1    12 1   
     3     1    15 1   
     4     1    21 1   
     5     2     3 1   
     6     2    20 1   
     7     2    22 1   
     8     3     4 1   
     9     3    13 1   
    10     3    27 1   
    11     4     5 1   
    12     4    14 1   
    13     4    32 1   
    14     5     6 1   
    15     5    15 1   
    16     5    33 1   
    17     6    16 1   
    18     6    34 1   
    19     6    35 1   
    20     7     8 1   
    21     7    17 2   
    22     7    20 1   
    23     8    24 1   
    24     8    25 1   
    25     8    26 1   
    26     9    10 1   
    27     9    11 1   
    28     9    13 1   
    29     9    28 1   
    30    10    18 1   
    31    10    19 1   
    32    11    29 1   
    33    11    30 1   
    34    11    31 1   
    35    12    38 1   
    36    14    37 1   
    37    16    36 1   
    38    20    23 1   
@<TRIPOS>SUBSTRUCTURE
     1 MUB         1 TEMP              0 ****  ****    0 ROOT
