@<TRIPOS>MOLECULE
MUB
   38    38     1     0     0
SMALL
No Charge or Current Charge


@<TRIPOS>ATOM
      1 C1           1.4170     2.4130     1.7010 c6         1 MUB       0.382300
      2 C2           1.4000     1.3960     0.5130 c6         1 MUB       0.044700
      3 C3           0.2450     0.3800     0.7630 c6         1 MUB       0.153300
      4 C4          -1.1280     1.1260     0.9790 c6         1 MUB       0.100300
      5 C5          -0.9870     2.2400     2.0790 c6         1 MUB       0.165300
      6 C6          -0.9070     1.7270     3.5610 c3         1 MUB       0.126600
      7 C7           2.2530     2.4150    -1.6690 c          1 MUB       0.596100
      8 C8           1.7860     3.1100    -2.9410 c3         1 MUB      -0.181100
      9 C9          -0.1850    -1.6610     2.1400 c3         1 MUB       0.019300
     10 C10         -0.0680    -2.7870     1.0460 c          1 MUB       0.696000
     11 C11          0.2740    -2.1890     3.5160 c3         1 MUB      -0.066100
     12 O1           2.3590     3.4480     1.4920 oh         1 MUB      -0.640000
     13 O3           0.6180    -0.4730     1.8770 os         1 MUB      -0.456000
     14 O4          -1.5700     1.7120    -0.2740 oh         1 MUB      -0.741000
     15 O5           0.1540     3.0950     1.7890 os         1 MUB      -0.507000
     16 O6          -2.0950     1.0210     3.9750 oh         1 MUB      -0.709000
     17 O7           3.4310     2.1920    -1.4330 o          1 MUB      -0.590100
     18 O11         -0.9360    -3.6500     1.0250 o          1 MUB      -0.720000
     19 O10          0.8340    -2.7410     0.2180 o          1 MUB      -0.720000
     20 N2           1.2440     2.0480    -0.8130 ns         1 MUB      -0.509900
     21 H1           1.6450     1.8850     2.6410 h2         1 MUB       0.086700
     22 H2           2.3480     0.8400     0.5240 h1         1 MUB       0.138700
     23 HN2          0.2930     2.2640    -1.1010 hn         1 MUB       0.321500
     24 H81          2.6150     3.3840    -3.6040 hc         1 MUB       0.051700
     25 H82          1.0550     2.4710    -3.4500 hc         1 MUB       0.051700
     26 H83          1.1800     3.9820    -2.6700 hc         1 MUB       0.051700
     27 H3           0.1550    -0.2530    -0.1310 h1         1 MUB       0.074700
     28 H9          -1.2440    -1.3930     2.2290 h1         1 MUB       0.010700
     29 H111         1.3240    -2.5050     3.4800 hc         1 MUB       0.027700
     30 H112        -0.3330    -3.0500     3.8180 hc         1 MUB       0.027700
     31 H113         0.1680    -1.4140     4.2840 hc         1 MUB       0.027700
     32 H4A         -1.8820     0.3990     1.3130 h1         1 MUB       0.062700
     33 H5          -1.8820     2.8760     2.0280 h1         1 MUB       0.058700
     34 H61         -0.7410     2.5980     4.2100 h1         1 MUB       0.061700
     35 H62         -0.0320     1.0770     3.6790 h1         1 MUB       0.061700
     36 HO6         -2.7970     1.6920     4.1420 ho         1 MUB       0.485000
     37 H4          -2.4910     2.0350    -0.1380 ho         1 MUB       0.505000
     38 HO1          1.8610     4.0940     0.9510 ho         1 MUB       0.450000
@<TRIPOS>BOND
     1     1     2 1   
     2     1    12 1   
     3     1    15 1   
     4     1    21 1   
     5     2     3 1   
     6     2    20 1   
     7     2    22 1   
     8     3     4 1   
     9     3    13 1   
    10     3    27 1   
    11     4     5 1   
    12     4    14 1   
    13     4    32 1   
    14     5     6 1   
    15     5    15 1   
    16     5    33 1   
    17     6    16 1   
    18     6    34 1   
    19     6    35 1   
    20     7     8 1   
    21     7    17 2   
    22     7    20 1   
    23     8    24 1   
    24     8    25 1   
    25     8    26 1   
    26     9    10 1   
    27     9    11 1   
    28     9    13 1   
    29     9    28 1   
    30    10    18 1   
    31    10    19 1   
    32    11    29 1   
    33    11    30 1   
    34    11    31 1   
    35    12    38 1   
    36    14    37 1   
    37    16    36 1   
    38    20    23 1   
@<TRIPOS>SUBSTRUCTURE
     1 MUB         1 TEMP              0 ****  ****    0 ROOT
