@<TRIPOS>MOLECULE
MUC
   15    15     1     0     0
SMALL
No Charge or Current Charge


@<TRIPOS>ATOM
      1 C1          -2.1940     0.0800    -0.0030 c          1 MUC       0.730000
      2 O1          -2.3280     1.0460    -0.7390 o          1 MUC      -0.725500
      3 O2          -2.8950    -0.1280     0.9760 o          1 MUC      -0.725500
      4 C4           1.2890    -1.5850     0.3690 c2         1 MUC      -0.195200
      5 C5           2.3200    -0.9520    -0.2020 ce         1 MUC      -0.345200
      6 C6           2.0240     0.4550    -0.4560 c          1 MUC       0.644300
      7 O6           2.7740     1.2860    -0.9450 o          1 MUC      -0.536000
      8 O3           0.7600     0.6880     0.0080 os         1 MUC      -0.384100
      9 C3           0.1790    -0.5510     0.5180 c5         1 MUC       0.194500
     10 C2          -1.0730    -0.9180    -0.3030 c3         1 MUC      -0.216400
     11 H3          -0.0980    -0.4120     1.5740 h1         1 MUC       0.103700
     12 H2          -1.3680    -1.9170     0.0410 hc         1 MUC       0.032200
     13 H2A         -0.7930    -0.8880    -1.3640 hc         1 MUC       0.032200
     14 H4           1.2500    -2.6360     0.6640 ha         1 MUC       0.191000
     15 H5           3.2850    -1.3830    -0.4620 ha         1 MUC       0.199000
@<TRIPOS>BOND
     1     1     2 1   
     2     1     3 1   
     3     1    10 1   
     4     4     5 2   
     5     4     9 1   
     6     4    14 1   
     7     5     6 1   
     8     5    15 1   
     9     6     7 2   
    10     6     8 1   
    11     8     9 1   
    12     9    10 1   
    13     9    11 1   
    14    10    12 1   
    15    10    13 1   
@<TRIPOS>SUBSTRUCTURE
     1 MUC         1 TEMP              0 ****  ****    0 ROOT
