@<TRIPOS>MOLECULE
MUC
   15    15     1     0     0
SMALL
abcg2


@<TRIPOS>ATOM
      1 C1          -2.1880     0.1460    -0.0650 c          1 MUC       0.730000
      2 O1          -2.9800     0.3360    -1.0060 o          1 MUC      -0.725500
      3 O2          -2.2370     0.6480     1.0740 o          1 MUC      -0.725500
      4 C4           1.2810    -1.6050     0.2550 c2         1 MUC      -0.195200
      5 C5           2.3600    -0.9670    -0.1850 ce         1 MUC      -0.345200
      6 C6           2.0470     0.4680    -0.2200 c          1 MUC       0.644300
      7 O6           2.7400     1.3980    -0.5460 o          1 MUC      -0.536000
      8 O3           0.7840     0.6350     0.1960 os         1 MUC      -0.384100
      9 C3           0.1870    -0.6280     0.5130 c5         1 MUC       0.194500
     10 C2          -1.0470    -0.8580    -0.3360 c3         1 MUC      -0.216400
     11 H3          -0.0900    -0.6150     1.5710 h1         1 MUC       0.103700
     12 H2          -1.4220    -1.8630    -0.1090 hc         1 MUC       0.032200
     13 H2A         -0.7760    -0.8660    -1.3940 hc         1 MUC       0.032200
     14 H4           1.1580    -2.6680     0.4030 ha         1 MUC       0.191000
     15 H5           3.3150    -1.3750    -0.4750 ha         1 MUC       0.199000
@<TRIPOS>BOND
     1     1     2 1   
     2     1     3 1   
     3     1    10 1   
     4     4     5 2   
     5     4     9 1   
     6     4    14 1   
     7     5     6 1   
     8     5    15 1   
     9     6     7 2   
    10     6     8 1   
    11     8     9 1   
    12     9    10 1   
    13     9    11 1   
    14    10    12 1   
    15    10    13 1   
@<TRIPOS>SUBSTRUCTURE
     1 MUC         1 TEMP              0 ****  ****    0 ROOT
