@<TRIPOS>MOLECULE
MUD
   33    32     1     0     0
SMALL
No Charge or Current Charge


@<TRIPOS>ATOM
      1 O3          -5.1760    -1.2560    -1.8990 o          1 MUD      -0.776000
      2 C2          -4.4010    -1.5710    -1.0090 c          1 MUD       0.710000
      3 O1          -4.6640    -2.4030    -0.1540 o          1 MUD      -0.776000
      4 C4          -3.0490    -0.8400    -0.9260 c3         1 MUD      -0.198400
      5 C5          -3.1820     0.4350    -0.0530 c3         1 MUD      -0.048400
      6 C6          -1.9060     1.3180     0.0070 c3         1 MUD      -0.036300
      7 C7          -2.1810     2.6600     0.7580 c          1 MUD       0.710000
      8 O8          -2.3360     2.6350     1.9720 o          1 MUD      -0.759000
      9 O9          -2.1560     3.7000     0.1140 o          1 MUD      -0.759000
     10 N10         -0.7590     0.6090     0.6270 ns         1 MUD      -0.448900
     11 C11          0.2560    -0.0140    -0.0560 c          1 MUD       0.652100
     12 O20          0.3450    -0.0400    -1.2740 o          1 MUD      -0.675100
     13 N12          1.1570    -0.6120     0.7900 ns         1 MUD      -0.470900
     14 C13          2.3960    -1.3170     0.3660 c3         1 MUD      -0.031300
     15 C17          2.4640    -2.7310     1.0100 c          1 MUD       0.706000
     16 O18          2.4200    -3.7050     0.2720 o          1 MUD      -0.735000
     17 O19          2.5210    -2.8190     2.2300 o          1 MUD      -0.735000
     18 C14          3.6740    -0.5140     0.6990 c3         1 MUD       0.097600
     19 S15          3.7410     1.1000    -0.2090 ss         1 MUD      -0.412000
     20 C16          5.3440     1.7530     0.4310 c3         1 MUD       0.012900
     21 H4          -2.3040    -1.4740    -0.4300 hc         1 MUD       0.022200
     22 H4A         -2.7420    -0.4910    -1.9200 hc         1 MUD       0.022200
     23 H5          -4.0030     1.0460    -0.4490 hc         1 MUD       0.035700
     24 H5A         -3.4720     0.1470     0.9650 hc         1 MUD       0.035700
     25 H6          -1.6310     1.5860    -1.0210 h1         1 MUD       0.055700
     26 HN10        -0.7150     0.5830     1.6370 hn         1 MUD       0.273500
     27 HN12         0.9660    -0.5470     1.7810 hn         1 MUD       0.269500
     28 H13          2.3660    -1.4680    -0.7200 h1         1 MUD       0.079700
     29 H14          3.7190    -0.3180     1.7790 h1         1 MUD       0.044200
     30 H14A         4.5560    -1.1060     0.4230 h1         1 MUD       0.044200
     31 H16          5.2930     1.8580     1.5220 h1         1 MUD       0.029367
     32 H16A         6.1560     1.0620     0.1710 h1         1 MUD       0.029367
     33 H16B         5.5480     2.7340    -0.0170 h1         1 MUD       0.029367
@<TRIPOS>BOND
     1     1     2 1   
     2     2     3 1   
     3     2     4 1   
     4     4     5 1   
     5     4    21 1   
     6     4    22 1   
     7     5     6 1   
     8     5    23 1   
     9     5    24 1   
    10     6     7 1   
    11     6    10 1   
    12     6    25 1   
    13     7     8 1   
    14     7     9 1   
    15    10    11 1   
    16    10    26 1   
    17    11    12 2   
    18    11    13 1   
    19    13    14 1   
    20    13    27 1   
    21    14    15 1   
    22    14    18 1   
    23    14    28 1   
    24    15    16 1   
    25    15    17 1   
    26    18    19 1   
    27    18    29 1   
    28    18    30 1   
    29    19    20 1   
    30    20    31 1   
    31    20    32 1   
    32    20    33 1   
@<TRIPOS>SUBSTRUCTURE
     1 MUD         1 TEMP              0 ****  ****    0 ROOT
