@<TRIPOS>MOLECULE
MUD
   33    32     1     0     0
SMALL
abcg2


@<TRIPOS>ATOM
      1 O3          -5.2350    -2.5780     0.9000 o          1 MUD      -0.776000
      2 C2          -4.9070    -1.3720     0.9240 c          1 MUD       0.710000
      3 O1          -5.5250    -0.4530     1.4980 o          1 MUD      -0.776000
      4 C4          -3.6140    -1.0120     0.1710 c3         1 MUD      -0.198400
      5 C5          -3.2540     0.4650     0.1530 c3         1 MUD      -0.048400
      6 C6          -1.9840     0.7810    -0.6390 c3         1 MUD      -0.036300
      7 C7          -1.8000     2.3140    -0.7590 c          1 MUD       0.710000
      8 O8          -0.8960     2.8450    -0.0890 o          1 MUD      -0.759000
      9 O9          -2.6120     2.8900    -1.5140 o          1 MUD      -0.759000
     10 N10         -0.8580     0.1170    -0.0210 ns         1 MUD      -0.448900
     11 C11          0.3620     0.1340    -0.6200 c          1 MUD       0.652100
     12 O20          0.5100     0.3940    -1.8100 o          1 MUD      -0.675100
     13 N12          1.4110    -0.1600     0.2060 ns         1 MUD      -0.470900
     14 C13          2.6690    -0.5930    -0.3500 c3         1 MUD      -0.031300
     15 C17          2.6570    -2.0590    -0.8640 c          1 MUD       0.706000
     16 O18          3.7270    -2.4500    -1.3740 o          1 MUD      -0.735000
     17 O19          1.6070    -2.7070    -0.7220 o          1 MUD      -0.735000
     18 C14          3.7720    -0.4130     0.6840 c3         1 MUD       0.097600
     19 S15          3.7790     1.2990     1.2970 ss         1 MUD      -0.412000
     20 C16          5.4160     1.3380     2.0620 c3         1 MUD       0.012900
     21 H4          -2.7960    -1.5980     0.6020 hc         1 MUD       0.022200
     22 H4A         -3.7070    -1.3750    -0.8600 hc         1 MUD       0.022200
     23 H5          -4.0720     1.0360    -0.2860 hc         1 MUD       0.035700
     24 H5A         -3.1390     0.8370     1.1770 hc         1 MUD       0.035700
     25 H6          -2.1090     0.3780    -1.6490 h1         1 MUD       0.055700
     26 HN10        -0.8610     0.1300     0.9880 hn         1 MUD       0.273500
     27 HN12         1.1670    -0.6100     1.0760 hn         1 MUD       0.269500
     28 H13          2.9000     0.0560    -1.1970 h1         1 MUD       0.079700
     29 H14          3.6400    -1.0980     1.5270 h1         1 MUD       0.044200
     30 H14A         4.7360    -0.6290     0.2260 h1         1 MUD       0.044200
     31 H16          5.5050     0.5940     2.8530 h1         1 MUD       0.029367
     32 H16A         6.2020     1.1740     1.3260 h1         1 MUD       0.029367
     33 H16B         5.5510     2.3250     2.5010 h1         1 MUD       0.029367
@<TRIPOS>BOND
     1     1     2 1   
     2     2     3 1   
     3     2     4 1   
     4     4     5 1   
     5     4    21 1   
     6     4    22 1   
     7     5     6 1   
     8     5    23 1   
     9     5    24 1   
    10     6     7 1   
    11     6    10 1   
    12     6    25 1   
    13     7     8 1   
    14     7     9 1   
    15    10    11 1   
    16    10    26 1   
    17    11    12 2   
    18    11    13 1   
    19    13    14 1   
    20    13    27 1   
    21    14    15 1   
    22    14    18 1   
    23    14    28 1   
    24    15    16 1   
    25    15    17 1   
    26    18    19 1   
    27    18    29 1   
    28    18    30 1   
    29    19    20 1   
    30    20    31 1   
    31    20    32 1   
    32    20    33 1   
@<TRIPOS>SUBSTRUCTURE
     1 MUD         1 TEMP              0 ****  ****    0 ROOT
