@<TRIPOS>MOLECULE
MUE
   23    24     1     0     0
SMALL
No Charge or Current Charge


@<TRIPOS>ATOM
      1 C1          16.0650     8.3980    13.1520 ca         1 MUE      -0.086000
      2 C2          14.6970     8.1170    13.3080 ca         1 MUE      -0.114000
      3 C5          14.8450     4.9420    15.2550 ca         1 MUE       0.018000
      4 C6          15.8100     4.0710    15.8020 ca         1 MUE      -0.269500
      5 C7          17.1820     4.3550    15.6410 ca         1 MUE      -0.024000
      6 C8          17.5850     5.5050    14.9410 ca         1 MUE      -0.112000
      7 C4          15.2490     6.0940    14.5540 ca         1 MUE      -0.067000
      8 C3          14.2880     6.9670    14.0070 ca         1 MUE      -0.083000
      9 O13         13.9110     2.7400    17.1650 o          1 MUE      -0.545000
     10 S11         15.2880     2.6040    16.6960 sy         1 MUE       1.125600
     11 O12         16.3590     2.1050    17.5550 o          1 MUE      -0.545000
     12 N14         15.1830     1.4750    15.5230 n8         1 MUE      -0.999100
     13 C9          16.6240     6.3770    14.3960 ca         1 MUE       0.006000
     14 C10         17.0270     7.5290    13.6950 ca         1 MUE      -0.112000
     15 H1          16.3790     9.2870    12.6100 ha         1 MUE       0.117000
     16 H2          13.9520     8.7890    12.8870 ha         1 MUE       0.118000
     17 H3          13.7840     4.7260    15.3720 ha         1 MUE       0.139000
     18 H4          17.9380     3.6890    16.0540 ha         1 MUE       0.135000
     19 H5          18.6450     5.7160    14.8220 ha         1 MUE       0.119000
     20 H6          13.2270     6.7590    14.1230 ha         1 MUE       0.119000
     21 H7          15.7770     0.7480    15.9140 hn         1 MUE       0.471000
     22 H8          14.2510     1.1090    15.7020 hn         1 MUE       0.471000
     23 H9          18.0840     7.7530    13.5700 ha         1 MUE       0.118000
@<TRIPOS>BOND
     1     1     2 ar  
     2     1    14 ar  
     3     1    15 1   
     4     2     8 ar  
     5     2    16 1   
     6     3     4 ar  
     7     3     7 ar  
     8     3    17 1   
     9     4     5 ar  
    10     4    10 1   
    11     5     6 ar  
    12     5    18 1   
    13     6    13 ar  
    14     6    19 1   
    15     7     8 ar  
    16     7    13 ar  
    17     8    20 1   
    18     9    10 2   
    19    10    11 2   
    20    10    12 1   
    21    12    21 1   
    22    12    22 1   
    23    13    14 ar  
    24    14    23 1   
@<TRIPOS>SUBSTRUCTURE
     1 MUE         1 TEMP              0 ****  ****    0 ROOT
