@<TRIPOS>MOLECULE
MUE
   23    24     1     0     0
SMALL
abcg2


@<TRIPOS>ATOM
      1 C1          16.0650     8.3450    13.1720 ca         1 MUE      -0.086000
      2 C2          14.6910     8.1370    13.4120 ca         1 MUE      -0.114000
      3 C5          14.8000     4.9610    15.3280 ca         1 MUE       0.018000
      4 C6          15.7380     4.0800    15.7860 ca         1 MUE      -0.269500
      5 C7          17.1180     4.2700    15.5540 ca         1 MUE      -0.024000
      6 C8          17.5270     5.3640    14.8500 ca         1 MUE      -0.112000
      7 C4          15.2090     6.1000    14.5980 ca         1 MUE      -0.067000
      8 C3          14.2710     7.0380    14.1110 ca         1 MUE      -0.083000
      9 O13         13.7970     2.7930    16.9790 o          1 MUE      -0.545000
     10 S11         15.2280     2.6800    16.7360 sy         1 MUE       1.125600
     11 O12         16.1160     2.5190    17.8770 o          1 MUE      -0.545000
     12 N14         15.6040     1.4450    15.7010 n8         1 MUE      -0.999100
     13 C9          16.5910     6.3060    14.3570 ca         1 MUE       0.006000
     14 C10         16.9930     7.4500    13.6320 ca         1 MUE      -0.112000
     15 H1          16.3840     9.2190    12.6210 ha         1 MUE       0.117000
     16 H2          13.9690     8.8540    13.0430 ha         1 MUE       0.118000
     17 H3          13.7450     4.8070    15.5160 ha         1 MUE       0.139000
     18 H4          17.8420     3.5580    15.9250 ha         1 MUE       0.135000
     19 H5          18.5820     5.5220    14.6640 ha         1 MUE       0.119000
     20 H6          13.2160     6.8760    14.2980 ha         1 MUE       0.119000
     21 H7          15.6770     0.5640    16.1990 hn         1 MUE       0.471000
     22 H8          14.9420     1.3550    14.9390 hn         1 MUE       0.471000
     23 H9          18.0470     7.6130    13.4460 ha         1 MUE       0.118000
@<TRIPOS>BOND
     1     1     2 ar  
     2     1    14 ar  
     3     1    15 1   
     4     2     8 ar  
     5     2    16 1   
     6     3     4 ar  
     7     3     7 ar  
     8     3    17 1   
     9     4     5 ar  
    10     4    10 1   
    11     5     6 ar  
    12     5    18 1   
    13     6    13 ar  
    14     6    19 1   
    15     7     8 ar  
    16     7    13 ar  
    17     8    20 1   
    18     9    10 2   
    19    10    11 2   
    20    10    12 1   
    21    12    21 1   
    22    12    22 1   
    23    13    14 ar  
    24    14    23 1   
@<TRIPOS>SUBSTRUCTURE
     1 MUE         1 TEMP              0 ****  ****    0 ROOT
