@<TRIPOS>MOLECULE
MUF
   62    66     1     0     0
SMALL
No Charge or Current Charge


@<TRIPOS>ATOM
      1 C1          -3.1700    -1.7820    -0.0560 c6         1 MUF      -0.064400
      2 C2          -4.6590    -2.1110    -0.3350 c6         1 MUF      -0.040200
      3 C3          -5.6190    -1.0660     0.2590 ce         1 MUF      -0.133400
      4 C4          -5.1380     0.1740     0.5920 cf         1 MUF      -0.242000
      5 C5          -3.7550     0.6260     0.4370 cf         1 MUF      -0.026200
      6 C6          -3.3470     1.7850     1.0070 c2         1 MUF      -0.278200
      7 C7          -1.9190     2.3020     1.0010 c6         1 MUF      -0.021200
      8 C8          -0.9720     1.5280     0.0450 c6         1 MUF      -0.043700
      9 C9          -1.2950    -0.0100     0.0610 c6         1 MUF      -0.042700
     10 C10         -2.7940    -0.2950    -0.3660 c6         1 MUF       0.000200
     11 C11         -0.2380    -0.8380    -0.7600 c6         1 MUF      -0.072400
     12 C12          1.2320    -0.5180    -0.3620 c6         1 MUF      -0.064400
     13 C13          1.5340     1.0040    -0.4650 c5         1 MUF      -0.031000
     14 C14          0.5160     1.7620     0.4380 c5         1 MUF      -0.061700
     15 C15          1.0710     3.2150     0.4140 c5         1 MUF      -0.070400
     16 C16          2.6250     3.0070     0.4640 c5         1 MUF      -0.068400
     17 C17          2.8270     1.4560     0.3010 c5         1 MUF      -0.160700
     18 C18          1.5130     1.4200    -1.9800 c3         1 MUF      -0.083100
     19 C19         -3.0490     0.0230    -1.8820 c3         1 MUF      -0.077100
     20 C20          4.1340     1.1110    -0.4840 c          1 MUF       0.601700
     21 O52          4.5390     1.6460    -1.5100 o          1 MUF      -0.538100
     22 C28         -7.0680    -1.4780     0.4590 c          1 MUF       0.707200
     23 O76         -7.8450    -0.6700     0.9500 o          1 MUF      -0.724000
     24 O82         -7.4210    -2.5970     0.1150 o          1 MUF      -0.724000
     25 C52          4.8700    -0.0400     0.1520 ca         1 MUF      -0.206600
     26 C53          5.2440    -1.1390    -0.6480 ca         1 MUF      -0.024500
     27 C54          5.9390    -2.2210    -0.0830 ca         1 MUF      -0.195000
     28 C55          6.2750    -2.2100     1.2770 ca         1 MUF       0.161100
     29 C56          5.9220    -1.1130     2.0780 ca         1 MUF      -0.195000
     30 C57          5.2250    -0.0280     1.5190 ca         1 MUF      -0.024500
     31 O57          6.9500    -3.2640     1.8130 oh         1 MUF      -0.531100
     32 H1          -2.9560    -1.9970     1.0000 hc         1 MUF       0.027200
     33 H1A         -2.5520    -2.4730    -0.6420 hc         1 MUF       0.027200
     34 H2          -4.8310    -2.1900    -1.4170 hc         1 MUF       0.049700
     35 H2A         -4.8750    -3.1050     0.0780 hc         1 MUF       0.049700
     36 H4          -5.8340     0.8910     1.0310 ha         1 MUF       0.198000
     37 H6          -4.0620     2.3890     1.5660 ha         1 MUF       0.172000
     38 H7          -1.9160     3.3700     0.7410 hc         1 MUF       0.028700
     39 H7A         -1.5400     2.2390     2.0300 hc         1 MUF       0.028700
     40 H8          -1.1250     1.9240    -0.9660 hc         1 MUF       0.049700
     41 H9          -1.1950    -0.3350     1.1070 hc         1 MUF       0.047700
     42 H11         -0.3970    -1.9120    -0.6060 hc         1 MUF       0.041200
     43 H11A        -0.3640    -0.6720    -1.8370 hc         1 MUF       0.041200
     44 H12          1.4030    -0.8640     0.6670 hc         1 MUF       0.034700
     45 H12A         1.9270    -1.0900    -0.9930 hc         1 MUF       0.034700
     46 H14          0.5770     1.3810     1.4670 hc         1 MUF       0.041700
     47 H15          0.7660     3.7530    -0.4910 hc         1 MUF       0.043700
     48 H15A         0.7110     3.8040     1.2660 hc         1 MUF       0.043700
     49 H16          3.1110     3.5810    -0.3340 hc         1 MUF       0.047200
     50 H16A         3.0540     3.3630     1.4070 hc         1 MUF       0.047200
     51 H17          2.8430     0.9590     1.2760 hc         1 MUF       0.058700
     52 H18          0.5150     1.3410    -2.4250 hc         1 MUF       0.036700
     53 H18A         1.8460     2.4500    -2.1420 hc         1 MUF       0.036700
     54 H18B         2.1720     0.7770    -2.5750 hc         1 MUF       0.036700
     55 H19         -2.5170    -0.6730    -2.5400 hc         1 MUF       0.029700
     56 H19A        -4.1120    -0.0510    -2.1380 hc         1 MUF       0.029700
     57 H19B        -2.7440     1.0380    -2.1530 hc         1 MUF       0.029700
     58 H53          4.9890    -1.1560    -1.7070 ha         1 MUF       0.125500
     59 H54          6.2190    -3.0690    -0.7040 ha         1 MUF       0.121500
     60 H56          6.1870    -1.0920     3.1320 ha         1 MUF       0.121500
     61 H57          4.9750     0.8250     2.1480 ha         1 MUF       0.125500
     62 HO57         7.0980    -3.0820     2.7660 ho         1 MUF       0.466000
@<TRIPOS>BOND
     1     1     2 1   
     2     1    10 1   
     3     1    32 1   
     4     1    33 1   
     5     2     3 1   
     6     2    34 1   
     7     2    35 1   
     8     3     4 2   
     9     3    22 1   
    10     4     5 1   
    11     4    36 1   
    12     5     6 2   
    13     5    10 1   
    14     6     7 1   
    15     6    37 1   
    16     7     8 1   
    17     7    38 1   
    18     7    39 1   
    19     8     9 1   
    20     8    14 1   
    21     8    40 1   
    22     9    10 1   
    23     9    11 1   
    24     9    41 1   
    25    10    19 1   
    26    11    12 1   
    27    11    42 1   
    28    11    43 1   
    29    12    13 1   
    30    12    44 1   
    31    12    45 1   
    32    13    14 1   
    33    13    17 1   
    34    13    18 1   
    35    14    15 1   
    36    14    46 1   
    37    15    16 1   
    38    15    47 1   
    39    15    48 1   
    40    16    17 1   
    41    16    49 1   
    42    16    50 1   
    43    17    20 1   
    44    17    51 1   
    45    18    52 1   
    46    18    53 1   
    47    18    54 1   
    48    19    55 1   
    49    19    56 1   
    50    19    57 1   
    51    20    21 2   
    52    20    25 1   
    53    22    23 1   
    54    22    24 1   
    55    25    26 ar  
    56    25    30 ar  
    57    26    27 ar  
    58    26    58 1   
    59    27    28 ar  
    60    27    59 1   
    61    28    29 ar  
    62    28    31 1   
    63    29    30 ar  
    64    29    60 1   
    65    30    61 1   
    66    31    62 1   
@<TRIPOS>SUBSTRUCTURE
     1 MUF         1 TEMP              0 ****  ****    0 ROOT
