@<TRIPOS>MOLECULE
MUF
   62    66     1     0     0
SMALL
bcc


@<TRIPOS>ATOM
      1 C1          -3.0430    -1.7700    -0.0790 c6         1 MUF      -0.064400
      2 C2          -4.1770    -1.9020     0.9360 c6         1 MUF      -0.040200
      3 C3          -5.3560    -1.0620     0.5460 ce         1 MUF      -0.133400
      4 C4          -5.0980     0.1810     0.1280 cf         1 MUF      -0.192000
      5 C5          -3.7160     0.6600     0.0600 cf         1 MUF      -0.026200
      6 C6          -3.4060     1.8910     0.4770 c2         1 MUF      -0.228200
      7 C7          -2.0210     2.4340     0.5790 c6         1 MUF      -0.021200
      8 C8          -0.9760     1.5760    -0.1280 c6         1 MUF      -0.043700
      9 C9          -1.2730     0.0740     0.0430 c6         1 MUF      -0.042700
     10 C10         -2.6780    -0.3120    -0.4830 c6         1 MUF       0.000200
     11 C11         -0.1480    -0.7770    -0.5600 c6         1 MUF      -0.072400
     12 C12          1.2380    -0.4130    -0.0260 c6         1 MUF      -0.064400
     13 C13          1.5360     1.0640    -0.2520 c5         1 MUF      -0.031000
     14 C14          0.4140     1.8790     0.4070 c5         1 MUF      -0.061700
     15 C15          0.9280     3.3140     0.3730 c5         1 MUF      -0.070400
     16 C16          2.4520     3.1670     0.5840 c5         1 MUF      -0.068400
     17 C17          2.7520     1.6540     0.5210 c5         1 MUF      -0.160700
     18 C18          1.6710     1.3590    -1.7490 c3         1 MUF      -0.083100
     19 C19         -2.7550    -0.2070    -2.0160 c3         1 MUF      -0.077100
     20 C20          4.0860     1.3000    -0.0880 c          1 MUF       0.601700
     21 O52          4.6500     2.0530    -0.8580 o          1 MUF      -0.538100
     22 C28         -6.7740    -1.5710     0.7110 c          1 MUF       0.917800
     23 O76         -7.6960    -0.8500     0.2780 o          1 MUF      -0.829300
     24 O82         -6.9030    -2.6760     1.2790 o          1 MUF      -0.829300
     25 C52          4.6910    -0.0240     0.2120 ca         1 MUF      -0.206600
     26 C53          5.6690    -0.5230    -0.6560 ca         1 MUF      -0.042500
     27 C54          6.2830    -1.7360    -0.4300 ca         1 MUF      -0.213000
     28 C55          5.9480    -2.4840     0.7000 ca         1 MUF       0.161100
     29 C56          4.9850    -2.0000     1.5810 ca         1 MUF      -0.213000
     30 C57          4.3640    -0.7890     1.3310 ca         1 MUF      -0.042500
     31 O57          6.5850    -3.6470     0.8860 oh         1 MUF      -0.492100
     32 H1          -2.1650    -2.2860     0.3130 hc         1 MUF       0.027200
     33 H1A         -3.3370    -2.3240    -0.9740 hc         1 MUF       0.027200
     34 H2          -4.4600    -2.9500     1.0340 hc         1 MUF       0.049700
     35 H2A         -3.8240    -1.5900     1.9270 hc         1 MUF       0.049700
     36 H4          -5.9080     0.8690    -0.0930 ha         1 MUF       0.148000
     37 H6          -4.2050     2.5360     0.8320 ha         1 MUF       0.122000
     38 H7          -1.9890     3.4570     0.1920 hc         1 MUF       0.028700
     39 H7A         -1.7660     2.5270     1.6440 hc         1 MUF       0.028700
     40 H8          -1.0080     1.8270    -1.1960 hc         1 MUF       0.049700
     41 H9          -1.2830    -0.1230     1.1260 hc         1 MUF       0.047700
     42 H11         -0.3260    -1.8350    -0.3580 hc         1 MUF       0.041200
     43 H11A        -0.1490    -0.6840    -1.6490 hc         1 MUF       0.041200
     44 H12          1.2740    -0.6310     1.0480 hc         1 MUF       0.034700
     45 H12A         1.9920    -1.0510    -0.4950 hc         1 MUF       0.034700
     46 H14          0.4050     1.5730     1.4660 hc         1 MUF       0.041700
     47 H15          0.7060     3.7820    -0.5890 hc         1 MUF       0.043700
     48 H15A         0.4670     3.9380     1.1390 hc         1 MUF       0.043700
     49 H16          3.0110     3.7100    -0.1750 hc         1 MUF       0.047200
     50 H16A         2.7630     3.5700     1.5480 hc         1 MUF       0.047200
     51 H17          2.7010     1.2520     1.5360 hc         1 MUF       0.058700
     52 H18          0.7400     1.1800    -2.2850 hc         1 MUF       0.036700
     53 H18A         1.9660     2.3890    -1.9490 hc         1 MUF       0.036700
     54 H18B         2.4230     0.7130    -2.2050 hc         1 MUF       0.036700
     55 H19         -2.1070    -0.9370    -2.5060 hc         1 MUF       0.029700
     56 H19A        -3.7730    -0.4050    -2.3540 hc         1 MUF       0.029700
     57 H19B        -2.4800     0.7840    -2.3770 hc         1 MUF       0.029700
     58 H53          5.9480     0.0470    -1.5320 ha         1 MUF       0.143500
     59 H54          7.0270    -2.1120    -1.1190 ha         1 MUF       0.139500
     60 H56          4.7160    -2.5610     2.4680 ha         1 MUF       0.139500
     61 H57          3.6310    -0.4440     2.0460 ha         1 MUF       0.143500
     62 HO57         6.2800    -4.0740     1.6920 ho         1 MUF       0.427000
@<TRIPOS>BOND
     1     1     2 1   
     2     1    10 1   
     3     1    32 1   
     4     1    33 1   
     5     2     3 1   
     6     2    34 1   
     7     2    35 1   
     8     3     4 2   
     9     3    22 1   
    10     4     5 1   
    11     4    36 1   
    12     5     6 2   
    13     5    10 1   
    14     6     7 1   
    15     6    37 1   
    16     7     8 1   
    17     7    38 1   
    18     7    39 1   
    19     8     9 1   
    20     8    14 1   
    21     8    40 1   
    22     9    10 1   
    23     9    11 1   
    24     9    41 1   
    25    10    19 1   
    26    11    12 1   
    27    11    42 1   
    28    11    43 1   
    29    12    13 1   
    30    12    44 1   
    31    12    45 1   
    32    13    14 1   
    33    13    17 1   
    34    13    18 1   
    35    14    15 1   
    36    14    46 1   
    37    15    16 1   
    38    15    47 1   
    39    15    48 1   
    40    16    17 1   
    41    16    49 1   
    42    16    50 1   
    43    17    20 1   
    44    17    51 1   
    45    18    52 1   
    46    18    53 1   
    47    18    54 1   
    48    19    55 1   
    49    19    56 1   
    50    19    57 1   
    51    20    21 2   
    52    20    25 1   
    53    22    23 1   
    54    22    24 1   
    55    25    26 ar  
    56    25    30 ar  
    57    26    27 ar  
    58    26    58 1   
    59    27    28 ar  
    60    27    59 1   
    61    28    29 ar  
    62    28    31 1   
    63    29    30 ar  
    64    29    60 1   
    65    30    61 1   
    66    31    62 1   
@<TRIPOS>SUBSTRUCTURE
     1 MUF         1 TEMP              0 ****  ****    0 ROOT
