@<TRIPOS>MOLECULE
MUG
   42    44     1     0     0
SMALL
No Charge or Current Charge


@<TRIPOS>ATOM
      1 O1           1.1580     1.2020     3.5430 os         1 MUG      -0.336200
      2 C2           0.8550     1.2070     4.8760 c          1 MUG       0.675300
      3 O2           1.3270     2.0380     5.6370 o          1 MUG      -0.489000
      4 C3          -0.0680     0.1610     5.3330 cc         1 MUG      -0.344200
      5 C4          -0.6080    -0.7810     4.4900 cd         1 MUG       0.053600
      6 CM4         -1.5520    -1.8330     5.0210 c3         1 MUG      -0.065900
      7 C4A         -0.2300    -0.7150     3.0710 ca         1 MUG      -0.187800
      8 C5          -0.7250    -1.6320     2.1190 ca         1 MUG      -0.023000
      9 C6          -0.3370    -1.5350     0.7710 ca         1 MUG      -0.206000
     10 C7           0.5480    -0.5170     0.3570 ca         1 MUG       0.187100
     11 C8           1.0400     0.3900     1.3040 ca         1 MUG      -0.174000
     12 C8A          0.6550     0.2930     2.6480 ca         1 MUG       0.201100
     13 C1           0.4670    -1.2000    -2.0130 c6         1 MUG       0.362300
     14 O7           0.9750    -0.3670    -0.9480 os         1 MUG      -0.361100
     15 C9           1.2580    -0.9640    -3.3510 c6         1 MUG       0.120300
     16 O8           2.6920    -1.1540    -3.2170 oh         1 MUG      -0.702000
     17 C10          0.9720     0.4730    -3.8740 c6         1 MUG       0.137300
     18 O3           1.6440     0.6910    -5.1290 oh         1 MUG      -0.669000
     19 C11         -0.5580     0.7050    -4.0250 c6         1 MUG       0.148300
     20 O4          -0.7990     2.0460    -4.4900 oh         1 MUG      -0.714000
     21 C12         -1.2600     0.4150    -2.6620 c6         1 MUG       0.169300
     22 O5          -0.9420    -0.9340    -2.2190 os         1 MUG      -0.455000
     23 C13         -2.8160     0.5490    -2.7550 c3         1 MUG       0.170600
     24 O6          -3.4950     0.2320    -1.5220 oh         1 MUG      -0.711000
     25 H3          -0.2930     0.1850     6.3910 ha         1 MUG       0.211000
     26 HM41        -1.7180    -1.7260     6.0990 hc         1 MUG       0.054033
     27 HM42        -2.5310    -1.7660     4.5310 hc         1 MUG       0.054033
     28 HM43        -1.1540    -2.8400     4.8490 hc         1 MUG       0.054033
     29 H5          -1.4100    -2.4240     2.4100 ha         1 MUG       0.118000
     30 H6          -0.7400    -2.2560     0.0670 ha         1 MUG       0.143000
     31 H8           1.7240     1.1730     0.9950 ha         1 MUG       0.153000
     32 H1           0.5940    -2.2560    -1.7290 h2         1 MUG       0.079700
     33 H2           0.8620    -1.6780    -4.0900 h1         1 MUG       0.058700
     34 HO2          2.8460    -2.0760    -2.9020 ho         1 MUG       0.512000
     35 H7           1.3520     1.1840    -3.1230 h1         1 MUG       0.074700
     36 HO3          2.5180     0.2450    -5.0240 ho         1 MUG       0.467000
     37 H4          -0.9430    -0.0150    -4.7640 h1         1 MUG       0.047700
     38 HO4         -0.0900     2.2100    -5.1590 ho         1 MUG       0.526000
     39 H9          -0.9040     1.1340    -1.9090 h1         1 MUG       0.080700
     40 H6'1        -3.0550     1.5770    -3.0570 h1         1 MUG       0.036200
     41 H6'2        -3.1660    -0.1140    -3.5580 h1         1 MUG       0.036200
     42 HO6         -4.4620     0.2810    -1.7050 ho         1 MUG       0.505000
@<TRIPOS>BOND
     1     1     2 1   
     2     1    12 1   
     3     2     3 2   
     4     2     4 1   
     5     4     5 2   
     6     4    25 1   
     7     5     6 1   
     8     5     7 1   
     9     6    26 1   
    10     6    27 1   
    11     6    28 1   
    12     7     8 ar  
    13     7    12 ar  
    14     8     9 ar  
    15     8    29 1   
    16     9    10 ar  
    17     9    30 1   
    18    10    11 ar  
    19    10    14 1   
    20    11    12 ar  
    21    11    31 1   
    22    13    14 1   
    23    13    15 1   
    24    13    22 1   
    25    13    32 1   
    26    15    16 1   
    27    15    17 1   
    28    15    33 1   
    29    16    34 1   
    30    17    18 1   
    31    17    19 1   
    32    17    35 1   
    33    18    36 1   
    34    19    20 1   
    35    19    21 1   
    36    19    37 1   
    37    20    38 1   
    38    21    22 1   
    39    21    23 1   
    40    21    39 1   
    41    23    24 1   
    42    23    40 1   
    43    23    41 1   
    44    24    42 1   
@<TRIPOS>SUBSTRUCTURE
     1 MUG         1 TEMP              0 ****  ****    0 ROOT
