@<TRIPOS>MOLECULE
MUG
   42    44     1     0     0
SMALL
bcc


@<TRIPOS>ATOM
      1 O1           1.5260     0.8810     3.5660 os         1 MUG      -0.336200
      2 C2           1.3410     0.8070     4.9110 c          1 MUG       0.750800
      3 O2           2.0690     1.4780     5.6020 o          1 MUG      -0.564500
      4 C3           0.2930    -0.0680     5.3790 cc         1 MUG      -0.294200
      5 C4          -0.4780    -0.7870     4.5340 cd         1 MUG       0.053600
      6 CM4         -1.5530    -1.6880     5.0400 c3         1 MUG      -0.065900
      7 C4A         -0.2390    -0.6730     3.1150 ca         1 MUG      -0.187800
      8 C5          -0.9630    -1.3580     2.1350 ca         1 MUG      -0.041000
      9 C6          -0.6910    -1.2080     0.7920 ca         1 MUG      -0.224000
     10 C7           0.3480    -0.3580     0.3930 ca         1 MUG       0.187100
     11 C8           1.0820     0.3410     1.3430 ca         1 MUG      -0.192000
     12 C8A          0.7800     0.1790     2.6830 ca         1 MUG       0.201100
     13 C1           0.3290    -1.0660    -1.8890 c6         1 MUG       0.315900
     14 O7           0.7020    -0.1460    -0.8880 os         1 MUG      -0.337900
     15 C9           1.2600    -0.8340    -3.0800 c6         1 MUG       0.097100
     16 O8           2.6120    -0.8690    -2.7130 oh         1 MUG      -0.579800
     17 C10          0.9640     0.5180    -3.7180 c6         1 MUG       0.114100
     18 O3           1.6850     0.6980    -4.9130 oh         1 MUG      -0.606800
     19 C11         -0.5170     0.6100    -4.0650 c6         1 MUG       0.125100
     20 O4          -0.8610     1.8930    -4.5250 oh         1 MUG      -0.591800
     21 C12         -1.3690     0.3180    -2.8300 c6         1 MUG       0.146100
     22 O5          -0.9990    -0.9330    -2.2650 os         1 MUG      -0.408600
     23 C13         -2.8410     0.2280    -3.1700 c3         1 MUG       0.147400
     24 O6          -3.5690     0.0230    -1.9830 oh         1 MUG      -0.588800
     25 H3           0.1510    -0.1190     6.4500 ha         1 MUG       0.161000
     26 HM41        -1.6140    -1.6560     6.1250 hc         1 MUG       0.054033
     27 HM42        -2.5240    -1.4030     4.6340 hc         1 MUG       0.054033
     28 HM43        -1.3690    -2.7200     4.7380 hc         1 MUG       0.054033
     29 H5          -1.7710    -2.0140     2.4290 ha         1 MUG       0.136000
     30 H6          -1.3020    -1.7310     0.0710 ha         1 MUG       0.161000
     31 H8           1.8880     0.9970     1.0380 ha         1 MUG       0.171000
     32 H1           0.4360    -2.0900    -1.5110 h2         1 MUG       0.079700
     33 H2           1.0270    -1.6170    -3.8150 h1         1 MUG       0.058700
     34 HO2          2.8920    -1.7860    -2.6380 ho         1 MUG       0.413000
     35 H7           1.2000     1.3160    -2.9980 h1         1 MUG       0.074700
     36 HO3          2.6190     0.7810    -4.6970 ho         1 MUG       0.428000
     37 H4          -0.7380    -0.1560    -4.8270 h1         1 MUG       0.047700
     38 HO4         -0.3230     2.0890    -5.2990 ho         1 MUG       0.427000
     39 H9          -1.2210     1.1250    -2.0990 h1         1 MUG       0.080700
     40 H6'1        -3.1350     1.1560    -3.6710 h1         1 MUG       0.036200
     41 H6'2        -2.9910    -0.5890    -3.8900 h1         1 MUG       0.036200
     42 HO6         -4.5040     0.0380    -2.2050 ho         1 MUG       0.406000
@<TRIPOS>BOND
     1     1     2 1   
     2     1    12 1   
     3     2     3 2   
     4     2     4 1   
     5     4     5 2   
     6     4    25 1   
     7     5     6 1   
     8     5     7 1   
     9     6    26 1   
    10     6    27 1   
    11     6    28 1   
    12     7     8 ar  
    13     7    12 ar  
    14     8     9 ar  
    15     8    29 1   
    16     9    10 ar  
    17     9    30 1   
    18    10    11 ar  
    19    10    14 1   
    20    11    12 ar  
    21    11    31 1   
    22    13    14 1   
    23    13    15 1   
    24    13    22 1   
    25    13    32 1   
    26    15    16 1   
    27    15    17 1   
    28    15    33 1   
    29    16    34 1   
    30    17    18 1   
    31    17    19 1   
    32    17    35 1   
    33    18    36 1   
    34    19    20 1   
    35    19    21 1   
    36    19    37 1   
    37    20    38 1   
    38    21    22 1   
    39    21    23 1   
    40    21    39 1   
    41    23    24 1   
    42    23    40 1   
    43    23    41 1   
    44    24    42 1   
@<TRIPOS>SUBSTRUCTURE
     1 MUG         1 TEMP              0 ****  ****    0 ROOT
