@<TRIPOS>MOLECULE
MUH
   51    54     1     0     0
SMALL
No Charge or Current Charge


@<TRIPOS>ATOM
      1 C9           5.3500    -4.1090    -0.1610 ca         1 MUH      -0.005000
      2 C10          6.7200    -3.8310     0.0360 ca         1 MUH      -0.135000
      3 C11          7.7160    -4.6700    -0.5000 ca         1 MUH       0.337000
      4 C12          7.3390    -5.7920    -1.2760 ca         1 MUH      -0.146300
      5 C13          5.9740    -6.0740    -1.4660 ca         1 MUH      -0.059000
      6 C14          4.9910    -5.2430    -0.9060 ca         1 MUH      -0.187000
      7 C15          8.3830    -6.7160    -1.9060 c3         1 MUH      -0.042800
      8 N3           4.2970    -3.3090     0.3620 ns         1 MUH      -0.139000
      9 C8           4.2830    -2.0650     0.9840 c          1 MUH       0.620700
     10 C16          1.7390    -2.3240     1.2480 ca         1 MUH      -0.060000
     11 C17          2.9220    -1.5670     1.4370 ca         1 MUH      -0.160600
     12 C18          2.8230    -0.3060     2.0700 ca         1 MUH      -0.010000
     13 C19          1.5800     0.1970     2.5120 ca         1 MUH      -0.205300
     14 C20          0.4150    -0.5710     2.3030 ca         1 MUH      -0.039000
     15 C6           0.5000    -1.8230     1.6770 ca         1 MUH      -0.124000
     16 C7           1.5070     1.5720     3.1850 c3         1 MUH       0.359300
     17 F3           0.3930     1.7270     3.9370 f          1 MUH      -0.111000
     18 F1           2.5590     1.7910     4.0060 f          1 MUH      -0.111000
     19 F2           1.5060     2.5670     2.2690 f          1 MUH      -0.111000
     20 N4           9.0760    -4.3890    -0.3340 nu         1 MUH      -0.960900
     21 C21         11.2010    -3.4520     0.3970 cp         1 MUH      -0.276500
     22 C22         11.9270    -2.9100     1.4840 ca         1 MUH       0.003000
     23 C23         11.2690    -2.7050     2.7020 ca         1 MUH      -0.221000
     24 C24          9.9170    -3.0530     2.8130 ca         1 MUH       0.400900
     25 N5           9.2130    -3.5850     1.7940 nb         1 MUH      -0.730000
     26 C5           9.8370    -3.7610     0.6260 ca         1 MUH       0.642900
     27 C1          11.2880    -3.3420    -2.1590 ca         1 MUH      -0.220000
     28 C2          12.0190    -3.5900    -3.3330 ca         1 MUH       0.105900
     29 N1          13.2530    -4.1310    -3.2900 nb         1 MUH      -0.174000
     30 C3          13.7420    -4.4110    -2.0640 ca         1 MUH       0.122900
     31 N2          13.1180    -4.2070    -0.8840 nb         1 MUH      -0.183000
     32 C4          11.8750    -3.6840    -0.9160 cp         1 MUH       0.186500
     33 O1           5.2910    -1.3900     1.1580 o          1 MUH      -0.568100
     34 H10          7.0290    -2.9610     0.6000 ha         1 MUH       0.163000
     35 H13          5.6690    -6.9390    -2.0510 ha         1 MUH       0.113000
     36 H14          3.9420    -5.4800    -1.0670 ha         1 MUH       0.110000
     37 H151         9.0570    -7.1290    -1.1460 hc         1 MUH       0.041033
     38 H152         7.9170    -7.5650    -2.4210 hc         1 MUH       0.041033
     39 H153         8.9910    -6.1810    -2.6460 hc         1 MUH       0.041033
     40 HN3          3.3840    -3.7310     0.2640 hn         1 MUH       0.152000
     41 H18          3.7210     0.2930     2.2190 ha         1 MUH       0.151000
     42 H20         -0.5590    -0.2030     2.6200 ha         1 MUH       0.135000
     43 H6          -0.4030    -2.4100     1.5220 ha         1 MUH       0.126000
     44 HN4          9.6630    -4.8280    -1.0320 hn         1 MUH       0.502000
     45 H22         12.9780    -2.6450     1.3800 ha         1 MUH       0.133000
     46 H23         11.7940    -2.2850     3.5550 ha         1 MUH       0.130000
     47 H24          9.3820    -2.9100     3.7510 h4         1 MUH       0.022100
     48 H1          10.3070    -2.8790    -2.2130 ha         1 MUH       0.146000
     49 H2          11.6190    -3.3470    -4.3160 h4         1 MUH       0.026100
     50 H3          14.7410    -4.8410    -2.0210 h5         1 MUH       0.051100
     51 H16          1.7580    -3.3000     0.7680 ha         1 MUH       0.120000
@<TRIPOS>BOND
     1     1     2 ar  
     2     1     6 ar  
     3     1     8 1   
     4     2     3 ar  
     5     2    34 1   
     6     3     4 ar  
     7     3    20 1   
     8     4     5 ar  
     9     4     7 1   
    10     5     6 ar  
    11     5    35 1   
    12     6    36 1   
    13     7    37 1   
    14     7    38 1   
    15     7    39 1   
    16     8     9 1   
    17     8    40 1   
    18     9    11 1   
    19     9    33 2   
    20    10    11 ar  
    21    10    15 ar  
    22    10    51 1   
    23    11    12 ar  
    24    12    13 ar  
    25    12    41 1   
    26    13    14 ar  
    27    13    16 1   
    28    14    15 ar  
    29    14    42 1   
    30    15    43 1   
    31    16    17 1   
    32    16    18 1   
    33    16    19 1   
    34    20    26 1   
    35    20    44 1   
    36    21    22 ar  
    37    21    26 ar  
    38    21    32 1   
    39    22    23 ar  
    40    22    45 1   
    41    23    24 ar  
    42    23    46 1   
    43    24    25 ar  
    44    24    47 1   
    45    25    26 ar  
    46    27    28 ar  
    47    27    32 ar  
    48    27    48 1   
    49    28    29 ar  
    50    28    49 1   
    51    29    30 ar  
    52    30    31 ar  
    53    30    50 1   
    54    31    32 ar  
@<TRIPOS>SUBSTRUCTURE
     1 MUH         1 TEMP              0 ****  ****    0 ROOT
