@<TRIPOS>MOLECULE
MUH
   51    54     1     0     0
SMALL
bcc


@<TRIPOS>ATOM
      1 C9           5.3370    -4.1660    -0.1660 ca         1 MUH       0.087600
      2 C10          6.6940    -3.8980    -0.0260 ca         1 MUH      -0.153000
      3 C11          7.6340    -4.7460    -0.6120 ca         1 MUH       0.198600
      4 C12          7.2370    -5.8570    -1.3680 ca         1 MUH      -0.146300
      5 C13          5.8730    -6.0890    -1.5030 ca         1 MUH      -0.077000
      6 C14          4.9290    -5.2720    -0.9110 ca         1 MUH      -0.205000
      7 C15          8.2410    -6.7730    -2.0030 c3         1 MUH      -0.042800
      8 N3           4.3210    -3.3890     0.4070 ns         1 MUH      -0.465100
      9 C8           4.4100    -2.2000     1.0460 c          1 MUH       0.687700
     10 C16          2.0770    -2.5030     2.0040 ca         1 MUH      -0.078000
     11 C17          3.1120    -1.6740     1.5750 ca         1 MUH      -0.160600
     12 C18          2.9700    -0.2960     1.6770 ca         1 MUH      -0.028000
     13 C19          1.7940     0.2490     2.1730 ca         1 MUH      -0.205300
     14 C20          0.7610    -0.5780     2.5950 ca         1 MUH      -0.057000
     15 C6           0.9120    -1.9540     2.5130 ca         1 MUH      -0.142000
     16 C7           1.6830     1.7400     2.2620 c3         1 MUH       0.723200
     17 F3           0.4670     2.1440     2.6360 f          1 MUH      -0.232300
     18 F1           2.5550     2.2440     3.1480 f          1 MUH      -0.232300
     19 F2           1.9510     2.3280     1.0890 f          1 MUH      -0.232300
     20 N4           9.0000    -4.4700    -0.5120 nu         1 MUH      -0.767300
     21 C21         11.0290    -3.5920     0.4580 cp         1 MUH      -0.341800
     22 C22         11.7020    -3.2570     1.6240 ca         1 MUH      -0.015000
     23 C23         11.0420    -3.2630     2.8420 ca         1 MUH      -0.304300
     24 C24          9.7070    -3.6270     2.8380 ca         1 MUH       0.466200
     25 N5           9.0520    -4.0040     1.7500 nb         1 MUH      -0.730000
     26 C5           9.6820    -4.0050     0.5830 ca         1 MUH       0.708200
     27 C1          11.1560    -2.9530    -1.9750 ca         1 MUH      -0.368600
     28 C2          11.9460    -2.8720    -3.1070 ca         1 MUH       0.434200
     29 N1          13.2100    -3.2790    -3.1250 nb         1 MUH      -0.700000
     30 C3          13.6780    -3.7570    -1.9820 ca         1 MUH       0.648900
     31 N2          13.0150    -3.8830    -0.8460 nb         1 MUH      -0.709000
     32 C4          11.7400    -3.4910    -0.8300 cp         1 MUH       0.514800
     33 O1           5.4430    -1.5690     1.1890 o          1 MUH      -0.568100
     34 H10          7.0290    -3.0380     0.5270 ha         1 MUH       0.181000
     35 H13          5.5400    -6.9450    -2.0760 ha         1 MUH       0.131000
     36 H14          3.8750    -5.4950    -1.0260 ha         1 MUH       0.128000
     37 H151         8.9280    -7.1970    -1.2680 hc         1 MUH       0.041033
     38 H152         7.7420    -7.6010    -2.5030 hc         1 MUH       0.041033
     39 H153         8.8500    -6.2660    -2.7590 hc         1 MUH       0.041033
     40 HN3          3.3920    -3.7470     0.2490 hn         1 MUH       0.318500
     41 H18          3.7830     0.3430     1.3550 ha         1 MUH       0.169000
     42 H20         -0.1580    -0.1690     2.9910 ha         1 MUH       0.153000
     43 H6           0.1160    -2.6010     2.8540 ha         1 MUH       0.144000
     44 HN4          9.5640    -4.7880    -1.2840 hn         1 MUH       0.446800
     45 H22         12.7410    -2.9600     1.5660 ha         1 MUH       0.151000
     46 H23         11.5400    -2.9830     3.7590 ha         1 MUH       0.148000
     47 H24          9.1360    -3.6300     3.7600 h4         1 MUH       0.022100
     48 H1          10.1390    -2.5880    -1.9860 ha         1 MUH       0.164000
     49 H2          11.5470    -2.4590    -4.0260 h4         1 MUH       0.026100
     50 H3          14.7130    -4.0820    -1.9760 h5         1 MUH       0.051100
     51 H16          2.1750    -3.5810     1.9740 ha         1 MUH       0.138000
@<TRIPOS>BOND
     1     1     2 ar  
     2     1     6 ar  
     3     1     8 1   
     4     2     3 ar  
     5     2    34 1   
     6     3     4 ar  
     7     3    20 1   
     8     4     5 ar  
     9     4     7 1   
    10     5     6 ar  
    11     5    35 1   
    12     6    36 1   
    13     7    37 1   
    14     7    38 1   
    15     7    39 1   
    16     8     9 1   
    17     8    40 1   
    18     9    11 1   
    19     9    33 2   
    20    10    11 ar  
    21    10    15 ar  
    22    10    51 1   
    23    11    12 ar  
    24    12    13 ar  
    25    12    41 1   
    26    13    14 ar  
    27    13    16 1   
    28    14    15 ar  
    29    14    42 1   
    30    15    43 1   
    31    16    17 1   
    32    16    18 1   
    33    16    19 1   
    34    20    26 1   
    35    20    44 1   
    36    21    22 ar  
    37    21    26 ar  
    38    21    32 1   
    39    22    23 ar  
    40    22    45 1   
    41    23    24 ar  
    42    23    46 1   
    43    24    25 ar  
    44    24    47 1   
    45    25    26 ar  
    46    27    28 ar  
    47    27    32 ar  
    48    27    48 1   
    49    28    29 ar  
    50    28    49 1   
    51    29    30 ar  
    52    30    31 ar  
    53    30    50 1   
    54    31    32 ar  
@<TRIPOS>SUBSTRUCTURE
     1 MUH         1 TEMP              0 ****  ****    0 ROOT
