@<TRIPOS>MOLECULE
MUJ
   49    51     1     0     0
SMALL
abcg2


@<TRIPOS>ATOM
      1 N1           5.5990     1.2730     1.1690 nb         1 MUJ      -0.336000
      2 C2           4.6830    -0.0260    -0.6260 ca         1 MUJ      -0.317300
      3 C3           4.8250     0.2740     0.7520 ca         1 MUJ       0.437900
      4 C4           5.4000     0.7910    -1.4660 ca         1 MUJ       0.172900
      5 C5           6.2350     1.9890     0.2440 ca         1 MUJ       0.402900
      6 N6           6.1780     1.7990    -1.0730 nb         1 MUJ      -0.280000
      7 C7           3.8200    -1.1450    -1.1230 c3         1 MUJ       0.048200
      8 C8           2.3390    -0.9220    -0.9040 ca         1 MUJ      -0.088300
      9 C9           0.3730     0.4740    -1.0070 ca         1 MUJ      -0.170000
     10 C10          1.7420     0.2920    -1.1910 ca         1 MUJ      -0.093000
     11 C11         -0.4190    -0.5540    -0.5250 ca         1 MUJ       0.112100
     12 C12          1.5400    -1.9620    -0.4210 ca         1 MUJ      -0.181000
     13 C13          0.1780    -1.7950    -0.2280 ca         1 MUJ       0.111100
     14 O14         -0.6550    -2.7450     0.2400 os         1 MUJ      -0.319100
     15 C15         -0.1100    -4.0050     0.5730 c3         1 MUJ       0.146900
     16 O16         -1.7480    -0.4760    -0.3030 os         1 MUJ      -0.323100
     17 C17         -2.3810     0.7810    -0.4980 c3         1 MUJ       0.214900
     18 C18         -3.8210     0.6350    -0.1200 ca         1 MUJ      -0.132300
     19 C19         -5.5180     0.3480     1.5790 ca         1 MUJ      -0.178000
     20 C20         -4.1940     0.4950     1.2180 ca         1 MUJ      -0.047000
     21 C21         -6.5170     0.3390     0.6000 ca         1 MUJ       0.151100
     22 C22         -4.8200     0.6210    -1.0810 ca         1 MUJ      -0.047000
     23 C23         -6.1610     0.4790    -0.7380 ca         1 MUJ      -0.178000
     24 O24         -7.7800     0.1950     1.0410 os         1 MUJ      -0.341100
     25 C25         -8.8300     0.1880     0.0930 c3         1 MUJ       0.148900
     26 N26          4.1860    -0.4380     1.6920 nv         1 MUJ      -1.082900
     27 N27          6.9830     3.0300     0.6890 nv         1 MUJ      -1.048900
     28 H4           5.3460     0.6200    -2.5390 h4         1 MUJ       0.013100
     29 H71C         4.0110    -1.2810    -2.1910 hc         1 MUJ       0.047700
     30 H72C         4.1120    -2.0910    -0.6530 hc         1 MUJ       0.047700
     31 H261         4.3350    -0.2290     2.6640 hn         1 MUJ       0.499000
     32 H262         3.5960    -1.2180     1.4680 hn         1 MUJ       0.499000
     33 H271         7.2490     3.0290     1.6590 hn         1 MUJ       0.483000
     34 H272         7.6620     3.4140     0.0540 hn         1 MUJ       0.483000
     35 H10          2.3340     1.1190    -1.5620 ha         1 MUJ       0.122000
     36 H12          2.0080    -2.9120    -0.1930 ha         1 MUJ       0.113000
     37 H9          -0.0590     1.4360    -1.2490 ha         1 MUJ       0.119000
     38 H151         0.6500    -3.9290     1.3540 h1         1 MUJ       0.038033
     39 H152        -0.9350    -4.6090     0.9440 h1         1 MUJ       0.038033
     40 H153         0.3280    -4.5050    -0.2950 h1         1 MUJ       0.038033
     41 H171        -1.8940     1.5430     0.1210 h1         1 MUJ       0.038200
     42 H172        -2.2920     1.0990    -1.5430 h1         1 MUJ       0.038200
     43 H20         -3.4360     0.5070     1.9920 ha         1 MUJ       0.115500
     44 H22         -4.5610     0.7270    -2.1280 ha         1 MUJ       0.115500
     45 H19         -5.7930     0.2440     2.6210 ha         1 MUJ       0.122500
     46 H23         -6.9020     0.4810    -1.5250 ha         1 MUJ       0.122500
     47 H251        -8.8840     1.1270    -0.4630 h1         1 MUJ       0.041033
     48 H252        -8.7330    -0.6370    -0.6180 h1         1 MUJ       0.041033
     49 H253        -9.7520     0.0610     0.6540 h1         1 MUJ       0.041033
@<TRIPOS>BOND
     1     1     3 ar  
     2     1     5 ar  
     3     2     3 ar  
     4     2     4 ar  
     5     2     7 1   
     6     3    26 1   
     7     4     6 ar  
     8     4    28 1   
     9     5     6 ar  
    10     5    27 1   
    11     7     8 1   
    12     7    29 1   
    13     7    30 1   
    14     8    10 ar  
    15     8    12 ar  
    16     9    10 ar  
    17     9    11 ar  
    18     9    37 1   
    19    10    35 1   
    20    11    13 ar  
    21    11    16 1   
    22    12    13 ar  
    23    12    36 1   
    24    13    14 1   
    25    14    15 1   
    26    15    38 1   
    27    15    39 1   
    28    15    40 1   
    29    16    17 1   
    30    17    18 1   
    31    17    41 1   
    32    17    42 1   
    33    18    20 ar  
    34    18    22 ar  
    35    19    20 ar  
    36    19    21 ar  
    37    19    45 1   
    38    20    43 1   
    39    21    23 ar  
    40    21    24 1   
    41    22    23 ar  
    42    22    44 1   
    43    23    46 1   
    44    24    25 1   
    45    25    47 1   
    46    25    48 1   
    47    25    49 1   
    48    26    31 1   
    49    26    32 1   
    50    27    33 1   
    51    27    34 1   
@<TRIPOS>SUBSTRUCTURE
     1 MUJ         1 TEMP              0 ****  ****    0 ROOT
