@<TRIPOS>MOLECULE
MUJ
   49    51     1     0     0
SMALL
No Charge or Current Charge


@<TRIPOS>ATOM
      1 N1           5.6420     0.9410     1.3170 nb         1 MUJ      -0.336000
      2 C2           4.7320    -0.0280    -0.6880 ca         1 MUJ      -0.317300
      3 C3           4.8650     0.0410     0.7080 ca         1 MUJ       0.437900
      4 C4           5.4690     0.9120    -1.4300 ca         1 MUJ       0.172900
      5 C5           6.2930     1.7810     0.5080 ca         1 MUJ       0.402900
      6 N6           6.2570     1.8250    -0.8300 nb         1 MUJ      -0.280000
      7 C7           3.8510    -1.0590    -1.3940 c3         1 MUJ       0.048200
      8 C8           2.3670    -0.8490    -1.1030 ca         1 MUJ      -0.088300
      9 C9           0.3960     0.5890    -1.1440 ca         1 MUJ      -0.170000
     10 C10          1.7590     0.3800    -1.4100 ca         1 MUJ      -0.093000
     11 C11         -0.3810    -0.4400    -0.5640 ca         1 MUJ       0.112100
     12 C12          1.5980    -1.8800    -0.5280 ca         1 MUJ      -0.181000
     13 C13          0.2240    -1.6820    -0.2560 ca         1 MUJ       0.111100
     14 O14         -0.5580    -2.6780     0.3090 os         1 MUJ      -0.319100
     15 C15         -0.0340    -3.9730     0.6510 c3         1 MUJ       0.146900
     16 O16         -1.7280    -0.2710    -0.2880 os         1 MUJ      -0.323100
     17 C17         -2.4240     0.9540    -0.5680 c3         1 MUJ       0.214900
     18 C18         -3.8770     0.7900    -0.1420 ca         1 MUJ      -0.132300
     19 C19         -5.6170     0.9820     1.5550 ca         1 MUJ      -0.178000
     20 C20         -4.2760     1.1350     1.1630 ca         1 MUJ      -0.047000
     21 C21         -6.5700     0.4840     0.6520 ca         1 MUJ       0.151100
     22 C22         -4.8300     0.2880    -1.0480 ca         1 MUJ      -0.047000
     23 C23         -6.1720     0.1350    -0.6560 ca         1 MUJ      -0.178000
     24 O24         -7.8720     0.3560     1.0940 os         1 MUJ      -0.341100
     25 C25         -8.9230    -0.1440     0.2480 c3         1 MUJ       0.148900
     26 N26          4.2020    -0.7930     1.5400 nv         1 MUJ      -1.082900
     27 N27          7.0840     2.6930     1.1160 nv         1 MUJ      -1.048900
     28 H4           5.4320     0.9380    -2.5180 h4         1 MUJ       0.013100
     29 H71C         4.0110    -1.0130    -2.4780 hc         1 MUJ       0.047700
     30 H72C         4.1630    -2.0690    -1.1000 hc         1 MUJ       0.047700
     31 H261         4.1610    -0.5300     2.5210 hn         1 MUJ       0.499000
     32 H262         3.3740    -1.2470     1.1680 hn         1 MUJ       0.499000
     33 H271         7.3110     2.5530     2.0970 hn         1 MUJ       0.483000
     34 H272         7.7640     3.1990     0.5540 hn         1 MUJ       0.483000
     35 H10          2.3460     1.1800    -1.8560 ha         1 MUJ       0.122000
     36 H12          2.0790    -2.8280    -0.3030 ha         1 MUJ       0.113000
     37 H9          -0.0370     1.5530    -1.3940 ha         1 MUJ       0.119000
     38 H151         0.7710    -3.8850     1.3920 h1         1 MUJ       0.038033
     39 H152        -0.8250    -4.6000     1.0810 h1         1 MUJ       0.038033
     40 H153         0.3570    -4.4830    -0.2390 h1         1 MUJ       0.038033
     41 H171        -1.9740     1.7900    -0.0180 h1         1 MUJ       0.038200
     42 H172        -2.3820     1.1870    -1.6410 h1         1 MUJ       0.038200
     43 H20         -3.5480     1.5200     1.8750 ha         1 MUJ       0.115500
     44 H22         -4.5300     0.0140    -2.0580 ha         1 MUJ       0.115500
     45 H19         -5.9200     1.2500     2.5630 ha         1 MUJ       0.122500
     46 H23         -6.8830    -0.2540    -1.3790 ha         1 MUJ       0.122500
     47 H251        -9.0510     0.4950    -0.6340 h1         1 MUJ       0.041033
     48 H252        -8.7020    -1.1660    -0.0850 h1         1 MUJ       0.041033
     49 H253        -9.8740    -0.1630     0.7950 h1         1 MUJ       0.041033
@<TRIPOS>BOND
     1     1     3 ar  
     2     1     5 ar  
     3     2     3 ar  
     4     2     4 ar  
     5     2     7 1   
     6     3    26 1   
     7     4     6 ar  
     8     4    28 1   
     9     5     6 ar  
    10     5    27 1   
    11     7     8 1   
    12     7    29 1   
    13     7    30 1   
    14     8    10 ar  
    15     8    12 ar  
    16     9    10 ar  
    17     9    11 ar  
    18     9    37 1   
    19    10    35 1   
    20    11    13 ar  
    21    11    16 1   
    22    12    13 ar  
    23    12    36 1   
    24    13    14 1   
    25    14    15 1   
    26    15    38 1   
    27    15    39 1   
    28    15    40 1   
    29    16    17 1   
    30    17    18 1   
    31    17    41 1   
    32    17    42 1   
    33    18    20 ar  
    34    18    22 ar  
    35    19    20 ar  
    36    19    21 ar  
    37    19    45 1   
    38    20    43 1   
    39    21    23 ar  
    40    21    24 1   
    41    22    23 ar  
    42    22    44 1   
    43    23    46 1   
    44    24    25 1   
    45    25    47 1   
    46    25    48 1   
    47    25    49 1   
    48    26    31 1   
    49    26    32 1   
    50    27    33 1   
    51    27    34 1   
@<TRIPOS>SUBSTRUCTURE
     1 MUJ         1 TEMP              0 ****  ****    0 ROOT
