@<TRIPOS>MOLECULE
MUK
   28    29     1     0     0
SMALL
No Charge or Current Charge


@<TRIPOS>ATOM
      1 N1         -13.8770   -13.6020    91.0240 nb         1 MUK      -0.249500
      2 N3         -11.6480   -13.6000    91.5950 nu         1 MUK      -0.930900
      3 C4         -15.0000   -12.9300    90.7080 ca         1 MUK       0.171800
      4 C5         -12.7730   -12.8660    91.2400 ca         1 MUK       0.394900
      5 C6         -10.2970   -13.2950    91.7960 ca         1 MUK       0.321000
      6 C7          -9.6630   -12.2100    91.1570 ca         1 MUK      -0.156000
      7 C8          -8.2990   -11.9500    91.3770 ca         1 MUK      -0.082000
      8 C10         -8.1750   -13.8720    92.8610 ca         1 MUK      -0.082000
      9 C1         -13.7100    -9.3390    90.8090 c3         1 MUK      -0.152400
     10 C2         -13.8040   -10.8520    90.8710 ca         1 MUK       0.171800
     11 C3         -15.0080   -11.5280    90.6160 ca         1 MUK      -0.277000
     12 N2         -12.6820   -11.5240    91.1920 nb         1 MUK      -0.249500
     13 C9          -7.5560   -12.7800    92.2330 ca         1 MUK      -0.143000
     14 C11         -9.5400   -14.1280    92.6380 ca         1 MUK      -0.156000
     15 C12        -16.2490   -13.7520    90.4530 c3         1 MUK      -0.152400
     16 H1         -11.8830   -14.5640    91.8270 hn         1 MUK       0.509000
     17 H2         -10.2140   -11.5740    90.4730 ha         1 MUK       0.128500
     18 H3          -7.8180   -11.1110    90.8800 ha         1 MUK       0.110500
     19 H4          -7.6000   -14.5190    93.5200 ha         1 MUK       0.110500
     20 H5         -13.8130    -8.9020    91.8090 hc         1 MUK       0.056200
     21 H6         -12.7470    -9.0150    90.3960 hc         1 MUK       0.056200
     22 H7         -14.5000    -8.9170    90.1760 hc         1 MUK       0.056200
     23 H8         -15.9140   -10.9860    90.3600 ha         1 MUK       0.132000
     24 H9          -6.5000   -12.5800    92.4030 ha         1 MUK       0.114000
     25 H10        -10.0100   -14.9760    93.1290 ha         1 MUK       0.128500
     26 H11        -16.3320   -14.5820    91.1640 hc         1 MUK       0.056200
     27 H12        -17.1550   -13.1420    90.5500 hc         1 MUK       0.056200
     28 H13        -16.2360   -14.1750    89.4410 hc         1 MUK       0.056200
@<TRIPOS>BOND
     1     1     3 ar  
     2     1     4 ar  
     3     2     4 1   
     4     2     5 1   
     5     2    16 1   
     6     3    11 ar  
     7     3    15 1   
     8     4    12 ar  
     9     5     6 ar  
    10     5    14 ar  
    11     6     7 ar  
    12     6    17 1   
    13     7    13 ar  
    14     7    18 1   
    15     8    13 ar  
    16     8    14 ar  
    17     8    19 1   
    18     9    10 1   
    19     9    20 1   
    20     9    21 1   
    21     9    22 1   
    22    10    11 ar  
    23    10    12 ar  
    24    11    23 1   
    25    13    24 1   
    26    14    25 1   
    27    15    26 1   
    28    15    27 1   
    29    15    28 1   
@<TRIPOS>SUBSTRUCTURE
     1 MUK         1 TEMP              0 ****  ****    0 ROOT
