@<TRIPOS>MOLECULE
MUK
   28    29     1     0     0
SMALL
bcc


@<TRIPOS>ATOM
      1 N1         -13.8950   -13.5700    91.2040 nb         1 MUK      -0.775500
      2 N3         -11.6820   -13.5870    91.6810 nu         1 MUK      -0.737300
      3 C4         -14.9850   -12.9260    90.8260 ca         1 MUK       0.500100
      4 C5         -12.7640   -12.8550    91.2880 ca         1 MUK       0.920900
      5 C6         -10.3500   -13.2410    91.8730 ca         1 MUK       0.182600
      6 C7          -9.8120   -11.9660    91.6750 ca         1 MUK      -0.174000
      7 C8          -8.4580   -11.7460    91.8960 ca         1 MUK      -0.100000
      8 C10         -8.1510   -14.0330    92.5100 ca         1 MUK      -0.100000
      9 C1         -13.5900    -9.4530    90.3680 c3         1 MUK      -0.152400
     10 C2         -13.7400   -10.9120    90.6510 ca         1 MUK       0.500100
     11 C3         -14.9540   -11.5620    90.5320 ca         1 MUK      -0.425600
     12 N2         -12.6390   -11.5640    91.0320 nb         1 MUK      -0.775500
     13 C9          -7.6160   -12.7650    92.3120 ca         1 MUK      -0.161000
     14 C11         -9.4960   -14.2690    92.2940 ca         1 MUK      -0.174000
     15 C12        -16.2550   -13.7060    90.7110 c3         1 MUK      -0.152400
     16 H1         -11.9060   -14.5550    91.8550 hn         1 MUK       0.453800
     17 H2         -10.4430   -11.1540    91.3520 ha         1 MUK       0.146500
     18 H3          -8.0630   -10.7510    91.7350 ha         1 MUK       0.128500
     19 H4          -7.5170   -14.8490    92.8340 ha         1 MUK       0.128500
     20 H5         -13.2480    -8.9270    91.2600 hc         1 MUK       0.056200
     21 H6         -12.8410    -9.2910    89.5920 hc         1 MUK       0.056200
     22 H7         -14.5280    -9.0060    90.0440 hc         1 MUK       0.056200
     23 H8         -15.8470   -11.0370    90.2230 ha         1 MUK       0.150000
     24 H9          -6.5640   -12.5790    92.4790 ha         1 MUK       0.132000
     25 H10         -9.8960   -15.2650    92.4540 ha         1 MUK       0.146500
     26 H11        -16.1260   -14.7220    91.0780 hc         1 MUK       0.056200
     27 H12        -17.0580   -13.2270    91.2720 hc         1 MUK       0.056200
     28 H13        -16.5780   -13.7520    89.6700 hc         1 MUK       0.056200
@<TRIPOS>BOND
     1     1     3 ar  
     2     1     4 ar  
     3     2     4 1   
     4     2     5 1   
     5     2    16 1   
     6     3    11 ar  
     7     3    15 1   
     8     4    12 ar  
     9     5     6 ar  
    10     5    14 ar  
    11     6     7 ar  
    12     6    17 1   
    13     7    13 ar  
    14     7    18 1   
    15     8    13 ar  
    16     8    14 ar  
    17     8    19 1   
    18     9    10 1   
    19     9    20 1   
    20     9    21 1   
    21     9    22 1   
    22    10    11 ar  
    23    10    12 ar  
    24    11    23 1   
    25    13    24 1   
    26    14    25 1   
    27    15    26 1   
    28    15    27 1   
    29    15    28 1   
@<TRIPOS>SUBSTRUCTURE
     1 MUK         1 TEMP              0 ****  ****    0 ROOT
