@<TRIPOS>MOLECULE
MUL
   81    83     1     0     0
SMALL
No Charge or Current Charge


@<TRIPOS>ATOM
      1 O1          -4.4680    -3.6560     0.6110 o          1 MUL      -0.518100
      2 O2          -4.7410     3.0620     0.1890 oh         1 MUL      -0.659000
      3 C1          -5.9990    -0.7140    -0.1850 c5         1 MUL      -0.075400
      4 C2          -6.0190    -1.7900     0.9490 c5         1 MUL      -0.197400
      5 C3          -4.6640    -2.4700     0.8480 c          1 MUL       0.579100
      6 C4          -3.7310    -1.2750     0.5490 c5         1 MUL      -0.162700
      7 C5          -2.1860    -1.5420     0.3700 c6         1 MUL      -0.009000
      8 C6          -1.9890    -2.3550    -1.0170 c6         1 MUL      -0.055700
      9 C7          -2.7360    -1.7140    -2.2520 c6         1 MUL      -0.079400
     10 C8          -4.2380    -1.4780    -1.9410 c6         1 MUL      -0.070400
     11 C9          -4.4870    -0.5900    -0.6610 c5         1 MUL      -0.035000
     12 C10         -4.1150     0.9330    -0.9440 c3         1 MUL      -0.042700
     13 C11         -4.0180     1.8340     0.3670 c3         1 MUL       0.186300
     14 C12         -2.5630     2.1990     0.9000 c3         1 MUL      -0.039800
     15 C13         -1.6890     0.9760     1.3680 c3         1 MUL      -0.081400
     16 C14         -1.3190    -0.1580     0.3320 c3         1 MUL       0.185300
     17 C15         -1.6640    -2.3810     1.5900 c3         1 MUL      -0.088100
     18 C16         -0.5110    -2.7040    -1.4410 c3         1 MUL      -0.085100
     19 C17         -5.0080     1.5760    -2.0610 c3         1 MUL      -0.075100
     20 C18         -2.7280     3.0960     2.1730 c3         1 MUL      -0.094100
     21 C19         -1.7960     3.0100    -0.1510 c2         1 MUL      -0.220200
     22 C20         -0.6470     3.6800     0.0470 c2         1 MUL      -0.303000
     23 O3           0.1100    -0.4210     0.5430 os         1 MUL      -0.459100
     24 C21          1.0500     0.3000    -0.1500 c          1 MUL       0.614100
     25 O4           0.8010     1.0690    -1.0680 o          1 MUL      -0.465000
     26 C22          2.4680    -0.1270     0.2680 c3         1 MUL      -0.023400
     27 S1           3.8420     0.7050    -0.6810 ss         1 MUL      -0.376000
     28 C23          5.3100    -0.0870     0.1250 c3         1 MUL       0.048600
     29 C24          6.6290     0.4510    -0.4790 c3         1 MUL       0.182800
     30 N1           7.8830     0.0000     0.2030 n3         1 MUL      -0.738600
     31 C25          8.0450    -1.4830     0.1800 c3         1 MUL       0.172800
     32 C26          9.1930    -2.0350     1.0510 c3         1 MUL      -0.089600
     33 C27          9.0950     0.7180    -0.2910 c3         1 MUL       0.172800
     34 C28          9.0800     2.2490    -0.0970 c3         1 MUL      -0.089600
     35 H11A        -6.4000     0.2330     0.1960 hc         1 MUL       0.053200
     36 H12         -6.6550    -0.9990    -1.0160 hc         1 MUL       0.053200
     37 H21         -6.8400    -2.5100     0.8650 hc         1 MUL       0.072700
     38 H22         -6.0680    -1.2570     1.9060 hc         1 MUL       0.072700
     39 H4          -3.8430    -0.6380     1.4280 hc         1 MUL       0.068700
     40 H6          -2.4400    -3.3450    -0.8700 hc         1 MUL       0.053700
     41 H71         -2.6550    -2.3840    -3.1200 hc         1 MUL       0.048700
     42 H72         -2.2500    -0.7780    -2.5530 hc         1 MUL       0.048700
     43 H81         -4.7110    -2.4600    -1.8100 hc         1 MUL       0.043200
     44 H82         -4.7370    -1.0710    -2.8260 hc         1 MUL       0.043200
     45 H10         -3.1350     0.9600    -1.4130 hc         1 MUL       0.067700
     46 H11         -4.5280     1.3010     1.1760 h1         1 MUL       0.023700
     47 H131        -2.1600     0.5100     2.2400 hc         1 MUL       0.053700
     48 H132        -0.7510     1.3840     1.7650 hc         1 MUL       0.053700
     49 H14         -1.4330     0.2510    -0.6720 h1         1 MUL       0.083700
     50 H151        -0.5880    -2.5790     1.5380 hc         1 MUL       0.044700
     51 H152        -1.8520    -1.8670     2.5400 hc         1 MUL       0.044700
     52 H153        -2.1440    -3.3630     1.6520 hc         1 MUL       0.044700
     53 H161         0.0370    -1.8130    -1.7650 hc         1 MUL       0.035033
     54 H162         0.0480    -3.1690    -0.6220 hc         1 MUL       0.035033
     55 H163        -0.5020    -3.4100    -2.2810 hc         1 MUL       0.035033
     56 H171        -4.6660     2.5900    -2.3010 hc         1 MUL       0.037367
     57 H172        -4.9580     1.0250    -3.0040 hc         1 MUL       0.037367
     58 H173        -6.0590     1.6330    -1.7560 hc         1 MUL       0.037367
     59 H181        -1.7670     3.2730     2.6710 hc         1 MUL       0.038033
     60 H182        -3.1440     4.0820     1.9330 hc         1 MUL       0.038033
     61 H183        -3.3900     2.6170     2.9040 hc         1 MUL       0.038033
     62 H19         -2.2460     3.0350    -1.1470 ha         1 MUL       0.183000
     63 H201        -0.1390     3.6960     1.0110 ha         1 MUL       0.162500
     64 H202        -0.1660     4.2320    -0.7620 ha         1 MUL       0.162500
     65 H221         2.5370    -1.2130     0.1380 h1         1 MUL       0.086200
     66 H222         2.5750     0.0940     1.3370 h1         1 MUL       0.086200
     67 H231         5.2400    -1.1720    -0.0170 h1         1 MUL       0.063700
     68 H232         5.2870     0.1300     1.2010 h1         1 MUL       0.063700
     69 H241         6.5540     1.5440    -0.4370 h1         1 MUL       0.045200
     70 H242         6.6620     0.1760    -1.5420 h1         1 MUL       0.045200
     71 H251         8.1910    -1.8300    -0.8530 h1         1 MUL       0.029700
     72 H252         7.1310    -1.9620     0.5500 h1         1 MUL       0.029700
     73 H261        10.1740    -1.7880     0.6300 hc         1 MUL       0.036867
     74 H262         9.1340    -1.6330     2.0700 hc         1 MUL       0.036867
     75 H263         9.1250    -3.1270     1.1100 hc         1 MUL       0.036867
     76 H271         9.9830     0.3570     0.2410 h1         1 MUL       0.029700
     77 H272         9.2520     0.5010    -1.3570 h1         1 MUL       0.029700
     78 H281         8.8310     2.5050     0.9400 hc         1 MUL       0.036867
     79 H282        10.0700     2.6630    -0.3220 hc         1 MUL       0.036867
     80 H283         8.3600     2.7340    -0.7650 hc         1 MUL       0.036867
     81 HO2         -4.0720     3.7750     0.2480 ho         1 MUL       0.442000
@<TRIPOS>BOND
     1     1     5 2   
     2     2    13 1   
     3     2    81 1   
     4     3     4 1   
     5     3    11 1   
     6     3    35 1   
     7     3    36 1   
     8     4     5 1   
     9     4    37 1   
    10     4    38 1   
    11     5     6 1   
    12     6     7 1   
    13     6    11 1   
    14     6    39 1   
    15     7     8 1   
    16     7    16 1   
    17     7    17 1   
    18     8     9 1   
    19     8    18 1   
    20     8    40 1   
    21     9    10 1   
    22     9    41 1   
    23     9    42 1   
    24    10    11 1   
    25    10    43 1   
    26    10    44 1   
    27    11    12 1   
    28    12    13 1   
    29    12    19 1   
    30    12    45 1   
    31    13    14 1   
    32    13    46 1   
    33    14    15 1   
    34    14    20 1   
    35    14    21 1   
    36    15    16 1   
    37    15    47 1   
    38    15    48 1   
    39    16    23 1   
    40    16    49 1   
    41    17    50 1   
    42    17    51 1   
    43    17    52 1   
    44    18    53 1   
    45    18    54 1   
    46    18    55 1   
    47    19    56 1   
    48    19    57 1   
    49    19    58 1   
    50    20    59 1   
    51    20    60 1   
    52    20    61 1   
    53    21    22 2   
    54    21    62 1   
    55    22    63 1   
    56    22    64 1   
    57    23    24 1   
    58    24    25 2   
    59    24    26 1   
    60    26    27 1   
    61    26    65 1   
    62    26    66 1   
    63    27    28 1   
    64    28    29 1   
    65    28    67 1   
    66    28    68 1   
    67    29    30 1   
    68    29    69 1   
    69    29    70 1   
    70    30    31 1   
    71    30    33 1   
    72    31    32 1   
    73    31    71 1   
    74    31    72 1   
    75    32    73 1   
    76    32    74 1   
    77    32    75 1   
    78    33    34 1   
    79    33    76 1   
    80    33    77 1   
    81    34    78 1   
    82    34    79 1   
    83    34    80 1   
@<TRIPOS>SUBSTRUCTURE
     1 MUL         1 TEMP              0 ****  ****    0 ROOT
