@<TRIPOS>MOLECULE
MUL
   81    83     1     0     0
SMALL
bcc


@<TRIPOS>ATOM
      1 O1          -4.0870    -3.2740     1.5900 o          1 MUL      -0.518100
      2 O2          -4.8540     2.9580    -0.0780 oh         1 MUL      -0.596800
      3 C1          -5.6570    -0.7780    -0.4370 c5         1 MUL      -0.075400
      4 C2          -5.7570    -2.0700     0.3610 c5         1 MUL      -0.197400
      5 C3          -4.3820    -2.2950     0.9490 c          1 MUL       0.579100
      6 C4          -3.5090    -1.0840     0.6240 c5         1 MUL      -0.162700
      7 C5          -1.9720    -1.2740     0.6420 c6         1 MUL      -0.009000
      8 C6          -1.6410    -2.2510    -0.5170 c6         1 MUL      -0.055700
      9 C7          -2.1800    -1.7300    -1.8490 c6         1 MUL      -0.079400
     10 C8          -3.6810    -1.4750    -1.8180 c6         1 MUL      -0.070400
     11 C9          -4.1510    -0.5470    -0.6820 c5         1 MUL      -0.035000
     12 C10         -3.8900     0.9490    -1.0080 c3         1 MUL      -0.042700
     13 C11         -4.0270     1.8590     0.2460 c3         1 MUL       0.163100
     14 C12         -2.6710     2.3550     0.8230 c3         1 MUL      -0.039800
     15 C13         -1.8170     1.2130     1.4120 c3         1 MUL      -0.081400
     16 C14         -1.3010     0.1180     0.4630 c3         1 MUL       0.162100
     17 C15         -1.5320    -1.8590     1.9940 c3         1 MUL      -0.088100
     18 C16         -0.1880    -2.6990    -0.6700 c3         1 MUL      -0.085100
     19 C17         -4.7770     1.4150    -2.1680 c3         1 MUL      -0.075100
     20 C18         -2.9700     3.2970     2.0070 c3         1 MUL      -0.094100
     21 C19         -1.9370     3.1580    -0.2250 c2         1 MUL      -0.170200
     22 C20         -0.6330     3.4060    -0.2600 c2         1 MUL      -0.203000
     23 O3           0.1120    -0.0400     0.7250 os         1 MUL      -0.435900
     24 C21          1.0200     0.2730    -0.1830 c          1 MUL       0.663100
     25 O4           0.8000     0.7130    -1.2810 o          1 MUL      -0.514000
     26 C22          2.4000    -0.0320     0.3390 c3         1 MUL      -0.071300
     27 S1           3.6400     0.5890    -0.8190 ss         1 MUL      -0.280200
     28 C23          5.1190    -0.0850    -0.0070 c3         1 MUL       0.000700
     29 C24          6.3630     0.4470    -0.7050 c3         1 MUL       0.182800
     30 N1           7.5600    -0.1810    -0.1730 n3         1 MUL      -0.738600
     31 C25          7.8260    -1.4630    -0.8110 c3         1 MUL       0.172800
     32 C26          8.6540    -2.3960     0.0570 c3         1 MUL      -0.089600
     33 C27          8.7130     0.7080    -0.2060 c3         1 MUL       0.172800
     34 C28          8.6770     1.7540     0.8960 c3         1 MUL      -0.089600
     35 H11A        -6.0800     0.0530     0.1330 hc         1 MUL       0.053200
     36 H12         -6.2120    -0.8270    -1.3750 hc         1 MUL       0.053200
     37 H21         -6.0240    -2.9330    -0.2530 hc         1 MUL       0.072700
     38 H22         -6.4940    -2.0250     1.1660 hc         1 MUL       0.072700
     39 H4          -3.7820    -0.4100     1.4490 hc         1 MUL       0.068700
     40 H6          -2.1990    -3.1640    -0.2750 hc         1 MUL       0.053700
     41 H71         -1.9710    -2.4700    -2.6270 hc         1 MUL       0.048700
     42 H72         -1.6330    -0.8310    -2.1520 hc         1 MUL       0.048700
     43 H81         -4.1810    -2.4450    -1.7120 hc         1 MUL       0.043200
     44 H82         -4.0100    -1.0920    -2.7850 hc         1 MUL       0.043200
     45 H10         -2.8710     1.0440    -1.3900 hc         1 MUL       0.067700
     46 H11         -4.5180     1.2930     1.0490 h1         1 MUL       0.023700
     47 H131        -2.3700     0.7740     2.2480 hc         1 MUL       0.053700
     48 H132        -0.9480     1.6750     1.8830 hc         1 MUL       0.053700
     49 H14         -1.3900     0.4590    -0.5640 h1         1 MUL       0.083700
     50 H151        -0.4550    -1.8010     2.1300 hc         1 MUL       0.044700
     51 H152        -1.9960    -1.3270     2.8280 hc         1 MUL       0.044700
     52 H153        -1.8120    -2.9040     2.0820 hc         1 MUL       0.044700
     53 H161         0.4280    -1.9690    -1.1950 hc         1 MUL       0.035033
     54 H162         0.2860    -2.9340     0.2830 hc         1 MUL       0.035033
     55 H163        -0.1610    -3.6060    -1.2760 hc         1 MUL       0.035033
     56 H171        -4.4860     2.4090    -2.5080 hc         1 MUL       0.037367
     57 H172        -4.6680     0.7480    -3.0230 hc         1 MUL       0.037367
     58 H173        -5.8340     1.4500    -1.9110 hc         1 MUL       0.037367
     59 H181        -2.0430     3.5770     2.5080 hc         1 MUL       0.038033
     60 H182        -3.4430     4.2270     1.6920 hc         1 MUL       0.038033
     61 H183        -3.6170     2.8130     2.7430 hc         1 MUL       0.038033
     62 H19         -2.5630     3.6220    -0.9820 ha         1 MUL       0.133000
     63 H201         0.0620     3.0110     0.4700 ha         1 MUL       0.112500
     64 H202        -0.2050     4.0360    -1.0300 ha         1 MUL       0.112500
     65 H221         2.4970    -1.1160     0.4510 h1         1 MUL       0.086200
     66 H222         2.5370     0.4050     1.3310 h1         1 MUL       0.086200
     67 H231         5.0760    -1.1750    -0.0490 h1         1 MUL       0.063700
     68 H232         5.1330     0.2100     1.0440 h1         1 MUL       0.063700
     69 H241         6.4120     1.5250    -0.5410 h1         1 MUL       0.045200
     70 H242         6.2800     0.3070    -1.7950 h1         1 MUL       0.045200
     71 H251         8.3090    -1.3300    -1.7920 h1         1 MUL       0.029700
     72 H252         6.8700    -1.9500    -1.0140 h1         1 MUL       0.029700
     73 H261         9.6360    -1.9840     0.2900 hc         1 MUL       0.036867
     74 H262         8.1430    -2.5990     0.9990 hc         1 MUL       0.036867
     75 H263         8.8130    -3.3450    -0.4540 hc         1 MUL       0.036867
     76 H271         9.6140     0.1060    -0.0760 h1         1 MUL       0.029700
     77 H272         8.8170     1.1960    -1.1890 h1         1 MUL       0.029700
     78 H281         8.6550     1.2770     1.8760 hc         1 MUL       0.036867
     79 H282         9.5630     2.3880     0.8460 hc         1 MUL       0.036867
     80 H283         7.8060     2.4060     0.8210 hc         1 MUL       0.036867
     81 HO2         -5.1590     3.3610     0.7390 ho         1 MUL       0.403000
@<TRIPOS>BOND
     1     1     5 2   
     2     2    13 1   
     3     2    81 1   
     4     3     4 1   
     5     3    11 1   
     6     3    35 1   
     7     3    36 1   
     8     4     5 1   
     9     4    37 1   
    10     4    38 1   
    11     5     6 1   
    12     6     7 1   
    13     6    11 1   
    14     6    39 1   
    15     7     8 1   
    16     7    16 1   
    17     7    17 1   
    18     8     9 1   
    19     8    18 1   
    20     8    40 1   
    21     9    10 1   
    22     9    41 1   
    23     9    42 1   
    24    10    11 1   
    25    10    43 1   
    26    10    44 1   
    27    11    12 1   
    28    12    13 1   
    29    12    19 1   
    30    12    45 1   
    31    13    14 1   
    32    13    46 1   
    33    14    15 1   
    34    14    20 1   
    35    14    21 1   
    36    15    16 1   
    37    15    47 1   
    38    15    48 1   
    39    16    23 1   
    40    16    49 1   
    41    17    50 1   
    42    17    51 1   
    43    17    52 1   
    44    18    53 1   
    45    18    54 1   
    46    18    55 1   
    47    19    56 1   
    48    19    57 1   
    49    19    58 1   
    50    20    59 1   
    51    20    60 1   
    52    20    61 1   
    53    21    22 2   
    54    21    62 1   
    55    22    63 1   
    56    22    64 1   
    57    23    24 1   
    58    24    25 2   
    59    24    26 1   
    60    26    27 1   
    61    26    65 1   
    62    26    66 1   
    63    27    28 1   
    64    28    29 1   
    65    28    67 1   
    66    28    68 1   
    67    29    30 1   
    68    29    69 1   
    69    29    70 1   
    70    30    31 1   
    71    30    33 1   
    72    31    32 1   
    73    31    71 1   
    74    31    72 1   
    75    32    73 1   
    76    32    74 1   
    77    32    75 1   
    78    33    34 1   
    79    33    76 1   
    80    33    77 1   
    81    34    78 1   
    82    34    79 1   
    83    34    80 1   
@<TRIPOS>SUBSTRUCTURE
     1 MUL         1 TEMP              0 ****  ****    0 ROOT
