@<TRIPOS>MOLECULE
MUN
   44    43     1     0     0
SMALL
abcg2


@<TRIPOS>ATOM
      1 CAR          9.4770     1.6490     0.1770 c3         1 MUN      -0.088100
      2 CAQ          8.3920     0.8820    -0.5650 c3         1 MUN      -0.074400
      3 CAP          7.1080     0.7450     0.2440 c3         1 MUN      -0.076400
      4 CAO          6.0110    -0.0180    -0.4880 c3         1 MUN      -0.074400
      5 CAN          4.7130    -0.1080     0.3040 c3         1 MUN      -0.074400
      6 CAM          3.6120    -0.8630    -0.4310 c3         1 MUN      -0.075400
      7 CAK          2.2880    -0.8620     0.3210 c3         1 MUN      -0.071400
      8 CAH          1.1840    -1.6060    -0.4350 c3         1 MUN      -0.057200
      9 CAF         -0.1140    -1.5440     0.2910 c2         1 MUN      -0.128200
     10 CAC         -1.2000    -0.9150    -0.1610 ce         1 MUN      -0.283200
     11 CAA         -2.4390    -0.8560     0.6310 c          1 MUN       0.597300
     12 OAD         -2.6050    -1.3620     1.7170 o          1 MUN      -0.499000
     13 OAB         -3.3760    -0.1580    -0.0020 os         1 MUN      -0.427100
     14 CAE         -4.6330     0.0160     0.6470 c3         1 MUN       0.128600
     15 CAG         -5.5310     0.8040    -0.2910 c3         1 MUN       0.164300
     16 OAJ         -5.7210     0.1460    -1.5190 oh         1 MUN      -0.626000
     17 CAI         -6.8400     1.1190     0.4170 c3         1 MUN       0.128600
     18 OAL         -7.6210     1.9370    -0.4180 oh         1 MUN      -0.642000
     19 H1           9.7450     1.1490     1.1090 hc         1 MUN       0.031367
     20 H2          10.3850     1.7430    -0.4200 hc         1 MUN       0.031367
     21 H3           9.1430     2.6570     0.4300 hc         1 MUN       0.031367
     22 H4           8.1680     1.3840    -1.5110 hc         1 MUN       0.036700
     23 H5           8.7620    -0.1130    -0.8310 hc         1 MUN       0.036700
     24 H6           7.3300     0.2430     1.1930 hc         1 MUN       0.037700
     25 H7           6.7400     1.7420     0.5100 hc         1 MUN       0.037700
     26 H8           5.8120     0.4690    -1.4490 hc         1 MUN       0.037200
     27 H9           6.3670    -1.0260    -0.7280 hc         1 MUN       0.037200
     28 H10          4.9060    -0.5910     1.2680 hc         1 MUN       0.038700
     29 H11          4.3620     0.9030     0.5380 hc         1 MUN       0.038700
     30 H12          3.4620    -0.4140    -1.4190 hc         1 MUN       0.038700
     31 H13          3.9330    -1.8950    -0.6120 hc         1 MUN       0.038700
     32 H14          2.4240    -1.3130     1.3100 hc         1 MUN       0.044200
     33 H15          1.9700     0.1700     0.4960 hc         1 MUN       0.044200
     34 H16          1.0730    -1.1870    -1.4380 hc         1 MUN       0.053700
     35 H17          1.4780    -2.6540    -0.5540 hc         1 MUN       0.053700
     36 H18         -0.1500    -2.0280     1.2630 ha         1 MUN       0.189000
     37 H20         -1.1930    -0.4170    -1.1240 ha         1 MUN       0.201000
     38 H22         -5.0790    -0.9560     0.8820 h1         1 MUN       0.049700
     39 H23         -4.4990     0.5570     1.5870 h1         1 MUN       0.049700
     40 H24         -5.0370     1.7510    -0.5330 h1         1 MUN       0.098700
     41 H25         -6.2060    -0.6730    -1.3600 ho         1 MUN       0.436000
     42 H26         -7.3540     0.1780     0.6630 h1         1 MUN       0.021200
     43 H27         -6.6120     1.6110     1.3710 h1         1 MUN       0.021200
     44 H28         -8.4540     2.1090     0.0290 ho         1 MUN       0.444000
@<TRIPOS>BOND
     1     1     2 1   
     2     1    19 1   
     3     1    20 1   
     4     1    21 1   
     5     2     3 1   
     6     2    22 1   
     7     2    23 1   
     8     3     4 1   
     9     3    24 1   
    10     3    25 1   
    11     4     5 1   
    12     4    26 1   
    13     4    27 1   
    14     5     6 1   
    15     5    28 1   
    16     5    29 1   
    17     6     7 1   
    18     6    30 1   
    19     6    31 1   
    20     7     8 1   
    21     7    32 1   
    22     7    33 1   
    23     8     9 1   
    24     8    34 1   
    25     8    35 1   
    26     9    10 2   
    27     9    36 1   
    28    10    11 1   
    29    10    37 1   
    30    11    12 2   
    31    11    13 1   
    32    13    14 1   
    33    14    15 1   
    34    14    38 1   
    35    14    39 1   
    36    15    16 1   
    37    15    17 1   
    38    15    40 1   
    39    16    41 1   
    40    17    18 1   
    41    17    42 1   
    42    17    43 1   
    43    18    44 1   
@<TRIPOS>SUBSTRUCTURE
     1 MUN         1 TEMP              0 ****  ****    0 ROOT
