@<TRIPOS>MOLECULE
MUN
   44    43     1     0     0
SMALL
No Charge or Current Charge


@<TRIPOS>ATOM
      1 CAR          9.2450     2.0950     0.1010 c3         1 MUN      -0.088100
      2 CAQ          8.3100     1.0200    -0.4880 c3         1 MUN      -0.074400
      3 CAP          6.9030     1.0290     0.1470 c3         1 MUN      -0.076400
      4 CAO          5.9670    -0.0490    -0.4430 c3         1 MUN      -0.074400
      5 CAN          4.5590    -0.0400     0.1920 c3         1 MUN      -0.074400
      6 CAM          3.6230    -1.1170    -0.3990 c3         1 MUN      -0.075400
      7 CAK          2.2150    -1.1080     0.2370 c3         1 MUN      -0.071400
      8 CAH          1.2770    -2.1830    -0.3520 c3         1 MUN      -0.057200
      9 CAF         -0.0950    -2.1590     0.2880 c2         1 MUN      -0.128200
     10 CAC         -1.0880    -1.2950    -0.0270 ce         1 MUN      -0.283200
     11 CAA         -2.4280    -1.2900     0.6180 c          1 MUN       0.597300
     12 OAD         -2.7710    -2.0660     1.5000 o          1 MUN      -0.499000
     13 OAB         -3.2180    -0.3020     0.0990 os         1 MUN      -0.427100
     14 CAE         -4.5580    -0.1620     0.6180 c3         1 MUN       0.128600
     15 CAG         -5.2680     1.0000    -0.1240 c3         1 MUN       0.164300
     16 OAJ         -5.4510     0.6810    -1.5180 oh         1 MUN      -0.626000
     17 CAI         -6.6540     1.3210     0.4940 c3         1 MUN       0.128600
     18 OAL         -7.3050     2.3610    -0.2570 oh         1 MUN      -0.642000
     19 H1           9.3820     1.9420     1.1780 hc         1 MUN       0.031367
     20 H2          10.2290     2.0500    -0.3800 hc         1 MUN       0.031367
     21 H3           8.8310     3.0980    -0.0580 hc         1 MUN       0.031367
     22 H4           8.2220     1.1790    -1.5700 hc         1 MUN       0.036700
     23 H5           8.7680     0.0330    -0.3450 hc         1 MUN       0.036700
     24 H6           6.9950     0.8720     1.2290 hc         1 MUN       0.037700
     25 H7           6.4490     2.0180     0.0040 hc         1 MUN       0.037700
     26 H8           5.8740     0.1080    -1.5250 hc         1 MUN       0.037200
     27 H9           6.4200    -1.0370    -0.3010 hc         1 MUN       0.037200
     28 H10          4.6510    -0.1970     1.2740 hc         1 MUN       0.038700
     29 H11          4.1050     0.9490     0.0490 hc         1 MUN       0.038700
     30 H12          3.5300    -0.9600    -1.4810 hc         1 MUN       0.038700
     31 H13          4.0760    -2.1060    -0.2560 hc         1 MUN       0.038700
     32 H14          2.3050    -1.2650     1.3190 hc         1 MUN       0.044200
     33 H15          1.7610    -0.1190     0.0950 hc         1 MUN       0.044200
     34 H16          1.1860    -2.0300    -1.4350 hc         1 MUN       0.053700
     35 H17          1.7330    -3.1720    -0.2160 hc         1 MUN       0.053700
     36 H18         -0.2430    -2.9200     1.0600 ha         1 MUN       0.189000
     37 H20         -0.9420    -0.5370    -0.7940 ha         1 MUN       0.201000
     38 H22         -5.1310    -1.0880     0.4790 h1         1 MUN       0.049700
     39 H23         -4.5280     0.0630     1.6930 h1         1 MUN       0.049700
     40 H24         -4.6430     1.8980    -0.0180 h1         1 MUN       0.098700
     41 H25         -6.1740     1.2780    -1.8170 ho         1 MUN       0.436000
     42 H26         -7.2710     0.4130     0.5000 h1         1 MUN       0.021200
     43 H27         -6.5170     1.6380     1.5370 h1         1 MUN       0.021200
     44 H28         -8.1520     2.5630     0.2010 ho         1 MUN       0.444000
@<TRIPOS>BOND
     1     1     2 1   
     2     1    19 1   
     3     1    20 1   
     4     1    21 1   
     5     2     3 1   
     6     2    22 1   
     7     2    23 1   
     8     3     4 1   
     9     3    24 1   
    10     3    25 1   
    11     4     5 1   
    12     4    26 1   
    13     4    27 1   
    14     5     6 1   
    15     5    28 1   
    16     5    29 1   
    17     6     7 1   
    18     6    30 1   
    19     6    31 1   
    20     7     8 1   
    21     7    32 1   
    22     7    33 1   
    23     8     9 1   
    24     8    34 1   
    25     8    35 1   
    26     9    10 2   
    27     9    36 1   
    28    10    11 1   
    29    10    37 1   
    30    11    12 2   
    31    11    13 1   
    32    13    14 1   
    33    14    15 1   
    34    14    38 1   
    35    14    39 1   
    36    15    16 1   
    37    15    17 1   
    38    15    40 1   
    39    16    41 1   
    40    17    18 1   
    41    17    42 1   
    42    17    43 1   
    43    18    44 1   
@<TRIPOS>SUBSTRUCTURE
     1 MUN         1 TEMP              0 ****  ****    0 ROOT
