@<TRIPOS>MOLECULE
MUO
   50    51     1     0     0
SMALL
bcc


@<TRIPOS>ATOM
      1 C06         -0.5360    -3.4710    27.2230 c3         1 MUO       0.038800
      2 C07          1.0840    -2.8810    28.9740 ca         1 MUO       0.201100
      3 C08          0.6700    -2.3190    30.1940 ca         1 MUO      -0.114300
      4 C09          2.3350    -2.5680    28.4290 ca         1 MUO      -0.114300
      5 C10         -0.5770    -1.9770    26.9470 c3         1 MUO      -0.086100
      6 C11         -1.9420    -3.9680    27.5510 c3         1 MUO      -0.086100
      7 C12          2.7710    -1.1130    30.3350 ca         1 MUO      -0.136800
      8 C13          1.5200    -1.4530    30.8580 ca         1 MUO      -0.095500
      9 C14          3.1500    -1.6800    29.1190 ca         1 MUO      -0.095500
     10 C15         -0.0180    -4.3130    26.0160 c          1 MUO       0.927600
     11 C16         -0.6710    -2.6590    30.7730 c3         1 MUO      -0.042300
     12 C17          2.8130    -3.1860    27.1490 c3         1 MUO      -0.042300
     13 C18          3.7010    -0.2200    31.0060 ce         1 MUO       0.027800
     14 C19          3.5840     0.2860    32.2450 cf         1 MUO      -0.313200
     15 C20          4.6220     1.1640    32.8050 c          1 MUO       0.590900
     16 C21          4.5650     1.5080    34.2520 ca         1 MUO      -0.161600
     17 C22          5.4990     2.4120    34.7600 ca         1 MUO      -0.069500
     18 C23          3.6440     0.9510    35.1440 ca         1 MUO      -0.069500
     19 C24          4.6040     2.1850    36.9820 ca         1 MUO       0.049900
     20 C25          5.5240     2.7520    36.1000 ca         1 MUO      -0.148500
     21 C26          3.6620     1.2800    36.4860 ca         1 MUO      -0.148500
     22 C27          5.9190     3.6510    38.9710 c3         1 MUO      -0.028000
     23 O02          0.2730    -3.7890    28.3910 os         1 MUO      -0.353900
     24 O03         -0.0730    -3.7710    24.8950 o          1 MUO      -0.816800
     25 O04          0.3430    -5.4750    26.2740 o          1 MUO      -0.816800
     26 O05          5.5290     1.6010    32.1120 o          1 MUO      -0.557100
     27 S01          4.5410     2.5250    38.6990 ss         1 MUO      -0.243000
     28 H103        -0.9290    -1.4220    27.8190 hc         1 MUO       0.028867
     29 H102         0.3870    -1.5660    26.6490 hc         1 MUO       0.028867
     30 H101        -1.2760    -1.7830    26.1360 hc         1 MUO       0.028867
     31 H113        -2.3910    -3.3860    28.3580 hc         1 MUO       0.028867
     32 H111        -2.5850    -3.8770    26.6750 hc         1 MUO       0.028867
     33 H112        -1.9280    -5.0170    27.8490 hc         1 MUO       0.028867
     34 H131         1.1920    -1.0260    31.7990 ha         1 MUO       0.117500
     35 H141         4.1200    -1.4320    28.7020 ha         1 MUO       0.117500
     36 H161        -0.8250    -3.7360    30.8440 hc         1 MUO       0.047367
     37 H162        -0.7780    -2.2390    31.7720 hc         1 MUO       0.047367
     38 H163        -1.4840    -2.2610    30.1630 hc         1 MUO       0.047367
     39 H172         2.2850    -2.7880    26.2810 hc         1 MUO       0.047367
     40 H173         3.8740    -2.9860    27.0030 hc         1 MUO       0.047367
     41 H171         2.6660    -4.2650    27.1420 hc         1 MUO       0.047367
     42 H181         4.5900     0.0350    30.4370 ha         1 MUO       0.132000
     43 H191         2.7260     0.0350    32.8530 ha         1 MUO       0.131000
     44 H221         6.2250     2.8610    34.0960 ha         1 MUO       0.145500
     45 H231         2.9020     0.2380    34.8150 ha         1 MUO       0.145500
     46 H251         6.2650     3.4590    36.4450 ha         1 MUO       0.134500
     47 H261         2.9390     0.8260    37.1530 ha         1 MUO       0.134500
     48 H272         5.9140     3.8750    40.0360 h1         1 MUO       0.064367
     49 H271         6.8710     3.1890    38.7160 h1         1 MUO       0.064367
     50 H273         5.7950     4.5810    38.4190 h1         1 MUO       0.064367
@<TRIPOS>BOND
     1     1     5 1   
     2     1     6 1   
     3     1    10 1   
     4     1    23 1   
     5     2     3 ar  
     6     2     4 ar  
     7     2    23 1   
     8     3     8 ar  
     9     3    11 1   
    10     4     9 ar  
    11     4    12 1   
    12     5    28 1   
    13     5    29 1   
    14     5    30 1   
    15     6    31 1   
    16     6    32 1   
    17     6    33 1   
    18     7     8 ar  
    19     7     9 ar  
    20     7    13 1   
    21     8    34 1   
    22     9    35 1   
    23    10    24 1   
    24    10    25 1   
    25    11    36 1   
    26    11    37 1   
    27    11    38 1   
    28    12    39 1   
    29    12    40 1   
    30    12    41 1   
    31    13    14 2   
    32    13    42 1   
    33    14    15 1   
    34    14    43 1   
    35    15    16 1   
    36    15    26 2   
    37    16    17 ar  
    38    16    18 ar  
    39    17    20 ar  
    40    17    44 1   
    41    18    21 ar  
    42    18    45 1   
    43    19    20 ar  
    44    19    21 ar  
    45    19    27 1   
    46    20    46 1   
    47    21    47 1   
    48    22    27 1   
    49    22    48 1   
    50    22    49 1   
    51    22    50 1   
@<TRIPOS>SUBSTRUCTURE
     1 MUO         1 TEMP              0 ****  ****    0 ROOT
