@<TRIPOS>MOLECULE
MUO
   50    51     1     0     0
SMALL
No Charge or Current Charge


@<TRIPOS>ATOM
      1 C06         -0.7140    -3.1570    27.1840 c3         1 MUO       0.062000
      2 C07          1.1270    -3.0510    28.8900 ca         1 MUO       0.201100
      3 C08          0.8430    -2.6540    30.2180 ca         1 MUO      -0.114300
      4 C09          2.3860    -2.7510    28.3170 ca         1 MUO      -0.114300
      5 C10         -0.6290    -1.5980    27.2590 c3         1 MUO      -0.086100
      6 C11         -2.1360    -3.6160    27.5930 c3         1 MUO      -0.086100
      7 C12          3.0410    -1.5860    30.3730 ca         1 MUO      -0.136800
      8 C13          1.7970    -1.9180    30.9450 ca         1 MUO      -0.077500
      9 C14          3.3270    -2.0150    29.0640 ca         1 MUO      -0.077500
     10 C15         -0.4310    -3.7000    25.7240 c          1 MUO       0.717000
     11 C16         -0.4880    -3.0000    30.8800 c3         1 MUO      -0.042300
     12 C17          2.7640    -3.2210    26.9170 c3         1 MUO      -0.042300
     13 C18          4.0690    -0.8070    31.1260 ce         1 MUO      -0.022200
     14 C19          3.9610    -0.1990    32.3450 cf         1 MUO      -0.363200
     15 C20          5.0610     0.5700    32.9950 c          1 MUO       0.590900
     16 C21          4.8510     1.1540    34.3730 ca         1 MUO      -0.161600
     17 C22          5.5600     2.3120    34.7580 ca         1 MUO      -0.051500
     18 C23          3.9730     0.5560    35.3050 ca         1 MUO      -0.051500
     19 C24          4.4980     2.2780    36.9560 ca         1 MUO      -0.077000
     20 C25          5.3840     2.8720    36.0350 ca         1 MUO      -0.130500
     21 C26          3.8010     1.1170    36.5810 ca         1 MUO      -0.130500
     22 C27          5.2730     4.4500    38.7270 c3         1 MUO       0.019900
     23 O02          0.1720    -3.7660    28.1840 os         1 MUO      -0.377100
     24 O03         -0.7680    -3.0140    24.7660 o          1 MUO      -0.711500
     25 O04          0.1680    -4.7610    25.5840 o          1 MUO      -0.711500
     26 O05          6.1270     0.7270    32.4130 o          1 MUO      -0.557100
     27 S01          4.2230     2.9350    38.6060 ss         1 MUO      -0.164000
     28 H103        -0.8080    -1.2330    28.2770 hc         1 MUO       0.028867
     29 H102         0.3500    -1.2360    26.9250 hc         1 MUO       0.028867
     30 H101        -1.3870    -1.1390    26.6130 hc         1 MUO       0.028867
     31 H113        -2.4000    -3.2550    28.5930 hc         1 MUO       0.028867
     32 H111        -2.8840    -3.2320    26.8880 hc         1 MUO       0.028867
     33 H112        -2.2050    -4.7110    27.5930 hc         1 MUO       0.028867
     34 H131         1.5630    -1.6130    31.9600 ha         1 MUO       0.099500
     35 H141         4.2920    -1.7760    28.6210 ha         1 MUO       0.099500
     36 H161        -0.8180    -4.0130    30.6190 hc         1 MUO       0.047367
     37 H162        -0.4180    -2.9570    31.9730 hc         1 MUO       0.047367
     38 H163        -1.2720    -2.2990    30.5730 hc         1 MUO       0.047367
     39 H172         2.2090    -2.6710    26.1500 hc         1 MUO       0.047367
     40 H173         3.8310    -3.0760    26.7140 hc         1 MUO       0.047367
     41 H171         2.5570    -4.2900    26.7930 hc         1 MUO       0.047367
     42 H181         5.0250    -0.7250    30.6020 ha         1 MUO       0.182000
     43 H191         3.0190    -0.2460    32.8800 ha         1 MUO       0.181000
     44 H221         6.2480     2.7880    34.0610 ha         1 MUO       0.127500
     45 H231         3.4330    -0.3560    35.0590 ha         1 MUO       0.127500
     46 H251         5.9450     3.7660    36.2890 ha         1 MUO       0.116500
     47 H261         3.1220     0.6440    37.2870 ha         1 MUO       0.116500
     48 H272         5.1440     4.9050    39.7160 h1         1 MUO       0.064367
     49 H271         6.3290     4.1830    38.5920 h1         1 MUO       0.064367
     50 H273         4.9740     5.1730    37.9580 h1         1 MUO       0.064367
@<TRIPOS>BOND
     1     1     5 1   
     2     1     6 1   
     3     1    10 1   
     4     1    23 1   
     5     2     3 ar  
     6     2     4 ar  
     7     2    23 1   
     8     3     8 ar  
     9     3    11 1   
    10     4     9 ar  
    11     4    12 1   
    12     5    28 1   
    13     5    29 1   
    14     5    30 1   
    15     6    31 1   
    16     6    32 1   
    17     6    33 1   
    18     7     8 ar  
    19     7     9 ar  
    20     7    13 1   
    21     8    34 1   
    22     9    35 1   
    23    10    24 1   
    24    10    25 1   
    25    11    36 1   
    26    11    37 1   
    27    11    38 1   
    28    12    39 1   
    29    12    40 1   
    30    12    41 1   
    31    13    14 2   
    32    13    42 1   
    33    14    15 1   
    34    14    43 1   
    35    15    16 1   
    36    15    26 2   
    37    16    17 ar  
    38    16    18 ar  
    39    17    20 ar  
    40    17    44 1   
    41    18    21 ar  
    42    18    45 1   
    43    19    20 ar  
    44    19    21 ar  
    45    19    27 1   
    46    20    46 1   
    47    21    47 1   
    48    22    27 1   
    49    22    48 1   
    50    22    49 1   
    51    22    50 1   
@<TRIPOS>SUBSTRUCTURE
     1 MUO         1 TEMP              0 ****  ****    0 ROOT
