@<TRIPOS>MOLECULE
MUP
   42    41     1     0     0
SMALL
bcc


@<TRIPOS>ATOM
      1 C1          -0.5990     0.1230    -3.1830 c3         1 MUP      -0.268600
      2 C2           0.2720    -0.0020    -1.9350 c3         1 MUP      -0.042400
      3 C3          -0.5240     0.1280    -0.6430 c3         1 MUP      -0.072400
      4 C4           0.3380     0.0090     0.6080 c3         1 MUP      -0.076400
      5 C5          -0.4640     0.1030     1.9000 c3         1 MUP      -0.074400
      6 C6           0.3970     0.0000     3.1540 c3         1 MUP      -0.075400
      7 C7          -0.4120     0.0560     4.4440 c3         1 MUP      -0.074400
      8 C8           0.4470    -0.0190     5.7000 c3         1 MUP      -0.075400
      9 C9          -0.3680     0.0080     6.9870 c3         1 MUP      -0.075400
     10 C10          0.4870    -0.0480     8.2470 c3         1 MUP      -0.075400
     11 C11         -0.3450    -0.0320     9.5230 c3         1 MUP      -0.088100
     12 CM          -0.5590    -0.0730    -7.1650 c3         1 MUP       0.191700
     13 O1P          0.8970    -1.5000    -4.8050 o          1 MUP      -0.832500
     14 O2P         -0.8600     0.1080    -5.7980 os         1 MUP      -0.585200
     15 O3P          1.3520     1.0540    -4.8670 o          1 MUP      -0.832500
     16 P            0.3780    -0.0860    -4.7090 p5         1 MUP       1.242600
     17 H11         -1.3930    -0.6300    -3.1540 hc         1 MUP       0.044200
     18 H12         -1.0930     1.1000    -3.1910 hc         1 MUP       0.044200
     19 H21          1.0560     0.7610    -1.9590 hc         1 MUP       0.042200
     20 H22          0.7870    -0.9680    -1.9470 hc         1 MUP       0.042200
     21 H31         -1.3040    -0.6420    -0.6210 hc         1 MUP       0.026700
     22 H32         -1.0480     1.0900    -0.6330 hc         1 MUP       0.026700
     23 H41          1.1040     0.7920     0.5970 hc         1 MUP       0.035200
     24 H42          0.8800    -0.9440     0.5870 hc         1 MUP       0.035200
     25 H51         -1.2200    -0.6900     1.9140 hc         1 MUP       0.032200
     26 H52         -1.0170     1.0480     1.9170 hc         1 MUP       0.032200
     27 H61          1.1360     0.8090     3.1530 hc         1 MUP       0.035700
     28 H62          0.9700    -0.9340     3.1260 hc         1 MUP       0.035700
     29 H71         -1.1370    -0.7660     4.4510 hc         1 MUP       0.034700
     30 H72         -1.0030     0.9790     4.4630 hc         1 MUP       0.034700
     31 H81          1.1580     0.8150     5.7030 hc         1 MUP       0.036200
     32 H82          1.0530    -0.9320     5.6730 hc         1 MUP       0.036200
     33 H91         -1.0700    -0.8340     6.9880 hc         1 MUP       0.035700
     34 H92         -0.9840     0.9140     7.0080 hc         1 MUP       0.035700
     35 H101         1.1810     0.7990     8.2510 hc         1 MUP       0.035700
     36 H102         1.1080    -0.9490     8.2240 hc         1 MUP       0.035700
     37 H111         0.2810    -0.0650    10.4150 hc         1 MUP       0.028367
     38 H112        -0.9560     0.8710     9.5820 hc         1 MUP       0.028367
     39 H113        -1.0200    -0.8890     9.5610 hc         1 MUP       0.028367
     40 HM1         -1.4560     0.1510    -7.7450 h1         1 MUP       0.003700
     41 HM2          0.2380     0.5940    -7.5060 h1         1 MUP       0.003700
     42 HM3         -0.2570    -1.1010    -7.3870 h1         1 MUP       0.003700
@<TRIPOS>BOND
     1     1     2 1   
     2     1    16 1   
     3     1    17 1   
     4     1    18 1   
     5     2     3 1   
     6     2    19 1   
     7     2    20 1   
     8     3     4 1   
     9     3    21 1   
    10     3    22 1   
    11     4     5 1   
    12     4    23 1   
    13     4    24 1   
    14     5     6 1   
    15     5    25 1   
    16     5    26 1   
    17     6     7 1   
    18     6    27 1   
    19     6    28 1   
    20     7     8 1   
    21     7    29 1   
    22     7    30 1   
    23     8     9 1   
    24     8    31 1   
    25     8    32 1   
    26     9    10 1   
    27     9    33 1   
    28     9    34 1   
    29    10    11 1   
    30    10    35 1   
    31    10    36 1   
    32    11    37 1   
    33    11    38 1   
    34    11    39 1   
    35    12    14 1   
    36    12    40 1   
    37    12    41 1   
    38    12    42 1   
    39    13    16 1   
    40    14    16 1   
    41    15    16 1   
@<TRIPOS>SUBSTRUCTURE
     1 MUP         1 TEMP              0 ****  ****    0 ROOT
