@<TRIPOS>MOLECULE
MUP
   42    41     1     0     0
SMALL
No Charge or Current Charge


@<TRIPOS>ATOM
      1 C1          -0.5600     0.0460    -3.2490 c3         1 MUP      -0.426400
      2 C2           0.3130    -0.0500    -1.9760 c3         1 MUP      -0.042400
      3 C3          -0.5120     0.0480    -0.6740 c3         1 MUP      -0.072400
      4 C4           0.3550    -0.0480     0.6010 c3         1 MUP      -0.076400
      5 C5          -0.4710     0.0500     1.9020 c3         1 MUP      -0.074400
      6 C6           0.3960    -0.0450     3.1770 c3         1 MUP      -0.075400
      7 C7          -0.4300     0.0530     4.4780 c3         1 MUP      -0.074400
      8 C8           0.4370    -0.0430     5.7530 c3         1 MUP      -0.075400
      9 C9          -0.3890     0.0550     7.0540 c3         1 MUP      -0.075400
     10 C10          0.4770    -0.0410     8.3290 c3         1 MUP      -0.075400
     11 C11         -0.3460     0.0570     9.6270 c3         1 MUP      -0.088100
     12 CM          -0.6200     0.0410    -7.2480 c3         1 MUP       0.214900
     13 O1P          1.0340    -1.3990    -4.9440 o          1 MUP      -0.832500
     14 O2P         -0.8770     0.0750    -5.8440 os         1 MUP      -0.608400
     15 O3P          1.3180     1.0840    -4.9520 o          1 MUP      -0.832500
     16 P            0.3710    -0.0650    -4.8310 p5         1 MUP       1.400400
     17 H11         -1.3010    -0.7600    -3.2600 hc         1 MUP       0.044200
     18 H12         -1.1000     0.9990    -3.2650 hc         1 MUP       0.044200
     19 H21          1.0620     0.7520    -1.9890 hc         1 MUP       0.042200
     20 H22          0.8620    -1.0010    -1.9840 hc         1 MUP       0.042200
     21 H31         -1.2600    -0.7540    -0.6610 hc         1 MUP       0.026700
     22 H32         -1.0600     0.9980    -0.6660 hc         1 MUP       0.026700
     23 H41          1.1040     0.7550     0.5880 hc         1 MUP       0.035200
     24 H42          0.9030    -0.9980     0.5930 hc         1 MUP       0.035200
     25 H51         -1.2190    -0.7520     1.9150 hc         1 MUP       0.032200
     26 H52         -1.0190     1.0010     1.9100 hc         1 MUP       0.032200
     27 H61          1.1450     0.7570     3.1640 hc         1 MUP       0.035700
     28 H62          0.9440    -0.9950     3.1690 hc         1 MUP       0.035700
     29 H71         -1.1780    -0.7490     4.4910 hc         1 MUP       0.034700
     30 H72         -0.9780     1.0030     4.4860 hc         1 MUP       0.034700
     31 H81          1.1860     0.7590     5.7400 hc         1 MUP       0.036200
     32 H82          0.9850    -0.9930     5.7450 hc         1 MUP       0.036200
     33 H91         -1.1380    -0.7470     7.0670 hc         1 MUP       0.035700
     34 H92         -0.9370     1.0050     7.0620 hc         1 MUP       0.035700
     35 H101         1.2260     0.7610     8.3210 hc         1 MUP       0.035700
     36 H102         1.0260    -0.9910     8.3260 hc         1 MUP       0.035700
     37 H111         0.3100    -0.0160    10.5030 hc         1 MUP       0.028367
     38 H112        -0.8800     1.0130     9.6780 hc         1 MUP       0.028367
     39 H113        -1.0820    -0.7550     9.6820 hc         1 MUP       0.028367
     40 HM1         -1.5580     0.1470    -7.8070 h1         1 MUP       0.003700
     41 HM2          0.0470     0.8610    -7.5440 h1         1 MUP       0.003700
     42 HM3         -0.1560    -0.9100    -7.5390 h1         1 MUP       0.003700
@<TRIPOS>BOND
     1     1     2 1   
     2     1    16 1   
     3     1    17 1   
     4     1    18 1   
     5     2     3 1   
     6     2    19 1   
     7     2    20 1   
     8     3     4 1   
     9     3    21 1   
    10     3    22 1   
    11     4     5 1   
    12     4    23 1   
    13     4    24 1   
    14     5     6 1   
    15     5    25 1   
    16     5    26 1   
    17     6     7 1   
    18     6    27 1   
    19     6    28 1   
    20     7     8 1   
    21     7    29 1   
    22     7    30 1   
    23     8     9 1   
    24     8    31 1   
    25     8    32 1   
    26     9    10 1   
    27     9    33 1   
    28     9    34 1   
    29    10    11 1   
    30    10    35 1   
    31    10    36 1   
    32    11    37 1   
    33    11    38 1   
    34    11    39 1   
    35    12    14 1   
    36    12    40 1   
    37    12    41 1   
    38    12    42 1   
    39    13    16 1   
    40    14    16 1   
    41    15    16 1   
@<TRIPOS>SUBSTRUCTURE
     1 MUP         1 TEMP              0 ****  ****    0 ROOT
