@<TRIPOS>MOLECULE
MUQ
   76    79     1     0     0
SMALL
bcc


@<TRIPOS>ATOM
      1 C1          17.2680   -12.0090    19.9590 c6         1 MUQ       0.073500
      2 C2          18.5260   -12.6500    19.3910 c6         1 MUQ       0.083000
      3 C3          18.8730   -14.2120    17.5020 c          1 MUQ       0.778100
      4 C4          21.1270   -13.6310    18.4350 c3         1 MUQ       0.091300
      5 C12         12.5180   -12.0340    21.0440 ca         1 MUQ      -0.097300
      6 C13         11.5750   -12.4040    21.9960 ca         1 MUQ      -0.062000
      7 C14         11.2570   -11.5660    23.0630 ca         1 MUQ      -0.144900
      8 C15         10.2390   -12.0100    24.0560 ce         1 MUQ       0.659800
      9 C16         11.8840   -10.3260    23.1600 ca         1 MUQ      -0.106000
     10 C17         12.8120    -9.9390    22.2040 ca         1 MUQ      -0.137000
     11 C18         13.1300   -10.7870    21.1560 ca         1 MUQ      -0.104000
     12 C19         15.8060   -16.3760    21.0700 ca         1 MUQ      -0.317500
     13 C20         16.2760   -16.7480    19.8200 ca         1 MUQ      -0.035000
     14 C21         17.6410   -16.6790    19.5800 ca         1 MUQ      -0.151000
     15 C22         18.5050   -16.2390    20.5680 ca         1 MUQ      -0.057000
     16 C23         18.0300   -15.8580    21.8260 cp         1 MUQ      -0.032000
     17 N           16.0890   -12.8070    19.6680 n          1 MUQ      -0.466800
     18 C           15.2870   -13.2160    20.6650 c          1 MUQ       0.648100
     19 O           15.4990   -12.9740    21.8460 o          1 MUQ      -0.616100
     20 C10         14.0020   -13.9640    20.2890 c3         1 MUQ       0.137500
     21 C11         12.8810   -12.9710    19.9280 c3         1 MUQ      -0.016100
     22 C24         18.9340   -15.3140    22.8580 cp         1 MUQ      -0.121000
     23 C25         18.6530   -14.0960    23.4640 ca         1 MUQ      -0.049000
     24 C26         19.4750   -13.5320    24.4290 ca         1 MUQ      -0.255000
     25 C27         20.6270   -14.2140    24.8110 ca         1 MUQ       0.188100
     26 C28         21.2600   -12.5280    26.3550 c3         1 MUQ       0.125700
     27 C29         20.9270   -15.4460    24.2300 ca         1 MUQ      -0.272000
     28 C30         20.0930   -15.9930    23.2670 ca         1 MUQ       0.189100
     29 C32         16.6640   -15.9430    22.0730 ca         1 MUQ      -0.024000
     30 C8          17.0520   -12.6270    17.4400 c6         1 MUQ       0.083000
     31 C9          15.8730   -13.1290    18.2580 c6         1 MUQ       0.073500
     32 N1          18.3080   -13.0690    18.0060 n          1 MUQ      -0.476800
     33 N2          20.0980   -14.5510    17.9900 ns         1 MUQ      -0.576900
     34 N3           9.3530   -12.8550    23.6910 n2         1 MUQ      -0.823100
     35 N4          10.3240   -11.4150    25.2820 nv         1 MUQ      -0.967800
     36 N5          13.5860   -14.8050    21.3980 n7         1 MUQ      -0.785100
     37 O1          18.3150   -14.9000    16.6520 o          1 MUQ      -0.641100
     38 O2          21.5060   -13.7700    25.7250 os         1 MUQ      -0.316900
     39 O3          20.3460   -17.1900    22.7090 oh         1 MUQ      -0.486100
     40 O4          13.8220   -16.8760    22.7380 o          1 MUQ      -0.601800
     41 O5          13.4150   -17.0290    20.2590 o          1 MUQ      -0.601800
     42 S           14.0640   -16.3880    21.3900 sy         1 MUQ       1.281200
     43 H1          17.3840   -11.9110    21.0340 h1         1 MUQ       0.062950
     44 H2          17.1340   -10.9990    19.5640 h1         1 MUQ       0.062950
     45 H3          18.7880   -13.5190    19.9970 h1         1 MUQ       0.065200
     46 H4          19.3370   -11.9240    19.4810 h1         1 MUQ       0.065200
     47 H5          22.0940   -14.0390    18.1510 h1         1 MUQ       0.039033
     48 H6          21.0280   -12.6550    17.9600 h1         1 MUQ       0.039033
     49 H7          21.1330   -13.4900    19.5170 h1         1 MUQ       0.039033
     50 H8          11.0770   -13.3620    21.9160 ha         1 MUQ       0.164000
     51 H9          11.6360    -9.6420    23.9610 ha         1 MUQ       0.134000
     52 H10         13.2820    -8.9670    22.2750 ha         1 MUQ       0.130000
     53 H11         13.8530   -10.4730    20.4120 ha         1 MUQ       0.124000
     54 H12         15.6040   -17.0920    19.0450 ha         1 MUQ       0.159000
     55 H13         18.0270   -16.9600    18.6100 ha         1 MUQ       0.146000
     56 H14         19.5610   -16.1680    20.3480 ha         1 MUQ       0.139000
     57 H15         14.1470   -14.5980    19.4130 h1         1 MUQ       0.082700
     58 H16         13.1860   -12.4050    19.0460 hc         1 MUQ       0.062700
     59 H17         12.0140   -13.5640    19.6340 hc         1 MUQ       0.062700
     60 H18         17.7620   -13.5600    23.1570 ha         1 MUQ       0.150000
     61 H19         19.2090   -12.5750    24.8560 ha         1 MUQ       0.141000
     62 H20         22.0880   -12.3610    27.0400 h1         1 MUQ       0.043033
     63 H21         21.2250   -11.7050    25.6370 h1         1 MUQ       0.043033
     64 H22         20.3280   -12.5370    26.9260 h1         1 MUQ       0.043033
     65 H23         21.8190   -15.9780    24.5450 ha         1 MUQ       0.147000
     66 H24         16.2800   -15.6650    23.0460 ha         1 MUQ       0.152000
     67 H25         17.0450   -11.5360    17.3840 h1         1 MUQ       0.065200
     68 H26         16.9520   -12.9900    16.4210 h1         1 MUQ       0.065200
     69 H27         14.9570   -12.6680    17.8780 h1         1 MUQ       0.062950
     70 H28         15.7900   -14.2100    18.1250 h1         1 MUQ       0.062950
     71 H29         20.4370   -15.4190    17.6070 hn         1 MUQ       0.316500
     72 H30          8.7400   -13.0990    24.4640 hn         1 MUQ       0.371400
     73 H31          9.7400   -11.7830    26.0160 hn         1 MUQ       0.405300
     74 H32         11.2260   -11.1030    25.6020 hn         1 MUQ       0.405300
     75 H33         13.7580   -14.3700    22.3000 hn         1 MUQ       0.448800
     76 H34         21.1490   -17.5730    23.0810 ho         1 MUQ       0.429000
@<TRIPOS>BOND
     1     1     2 1   
     2     1    17 1   
     3     1    43 1   
     4     1    44 1   
     5     2    32 1   
     6     2    45 1   
     7     2    46 1   
     8     3    32 1   
     9     3    33 1   
    10     3    37 2   
    11     4    33 1   
    12     4    47 1   
    13     4    48 1   
    14     4    49 1   
    15     5     6 ar  
    16     5    11 ar  
    17     5    21 1   
    18     6     7 ar  
    19     6    50 1   
    20     7     8 1   
    21     7     9 ar  
    22     8    34 2   
    23     8    35 1   
    24     9    10 ar  
    25     9    51 1   
    26    10    11 ar  
    27    10    52 1   
    28    11    53 1   
    29    12    13 ar  
    30    12    29 ar  
    31    12    42 1   
    32    13    14 ar  
    33    13    54 1   
    34    14    15 ar  
    35    14    55 1   
    36    15    16 ar  
    37    15    56 1   
    38    16    22 1   
    39    16    29 ar  
    40    17    18 1   
    41    17    31 1   
    42    18    19 2   
    43    18    20 1   
    44    20    21 1   
    45    20    36 1   
    46    20    57 1   
    47    21    58 1   
    48    21    59 1   
    49    22    23 ar  
    50    22    28 ar  
    51    23    24 ar  
    52    23    60 1   
    53    24    25 ar  
    54    24    61 1   
    55    25    27 ar  
    56    25    38 1   
    57    26    38 1   
    58    26    62 1   
    59    26    63 1   
    60    26    64 1   
    61    27    28 ar  
    62    27    65 1   
    63    28    39 1   
    64    29    66 1   
    65    30    31 1   
    66    30    32 1   
    67    30    67 1   
    68    30    68 1   
    69    31    69 1   
    70    31    70 1   
    71    33    71 1   
    72    34    72 1   
    73    35    73 1   
    74    35    74 1   
    75    36    42 1   
    76    36    75 1   
    77    39    76 1   
    78    40    42 2   
    79    41    42 2   
@<TRIPOS>SUBSTRUCTURE
     1 MUQ         1 TEMP              0 ****  ****    0 ROOT
