@<TRIPOS>MOLECULE
MUQ
   76    79     1     0     0
SMALL
No Charge or Current Charge


@<TRIPOS>ATOM
      1 C1          17.3090   -12.0660    20.5830 c6         1 MUQ       0.073500
      2 C2          18.6430   -12.6350    20.0370 c6         1 MUQ       0.083000
      3 C3          19.8160   -13.0600    17.7890 c          1 MUQ       0.644100
      4 C4          21.3310   -13.8810    19.6880 c3         1 MUQ       0.091300
      5 C12         12.2560   -12.0500    20.9930 ca         1 MUQ      -0.097300
      6 C13         11.0720   -12.3330    21.7030 ca         1 MUQ      -0.044000
      7 C14         10.5230   -11.3980    22.6130 ca         1 MUQ      -0.144900
      8 C15          9.2450   -11.7120    23.3350 ce         1 MUQ       0.659800
      9 C16         11.1720   -10.1490    22.7670 ca         1 MUQ      -0.088000
     10 C17         12.3490    -9.8620    22.0570 ca         1 MUQ      -0.119000
     11 C18         12.8910   -10.8080    21.1740 ca         1 MUQ      -0.086000
     12 C19         15.4540   -16.3480    21.5950 ca         1 MUQ      -0.317500
     13 C20         15.5630   -16.9350    20.3190 ca         1 MUQ      -0.017000
     14 C21         16.8210   -17.0310    19.7030 ca         1 MUQ      -0.133000
     15 C22         17.9700   -16.5640    20.3620 ca         1 MUQ      -0.039000
     16 C23         17.8960   -16.0120    21.6660 cp         1 MUQ      -0.032000
     17 N           16.1330   -12.8960    20.2060 n          1 MUQ      -0.399800
     18 C           15.1390   -13.2610    21.1520 c          1 MUQ       0.581100
     19 O           15.2600   -12.9450    22.3320 o          1 MUQ      -0.616100
     20 C10         13.8640   -14.0460    20.6640 c3         1 MUQ       0.137500
     21 C11         12.8380   -13.0750    20.0200 c3         1 MUQ      -0.016100
     22 C24         19.1180   -15.5160    22.3860 cp         1 MUQ      -0.121000
     23 C25         19.0540   -14.2980    23.1090 ca         1 MUQ      -0.031000
     24 C26         20.1820   -13.7750    23.7620 ca         1 MUQ      -0.237000
     25 C27         21.4040   -14.4700    23.7190 ca         1 MUQ       0.188100
     26 C28         22.5740   -12.7660    25.0640 c3         1 MUQ       0.148900
     27 C29         21.4820   -15.6870    23.0320 ca         1 MUQ      -0.254000
     28 C30         20.3590   -16.2130    22.3760 ca         1 MUQ       0.189100
     29 C32         16.6160   -15.9070    22.2640 ca         1 MUQ      -0.006000
     30 C8          17.3050   -12.8480    17.9260 c6         1 MUQ       0.083000
     31 C9          16.1650   -13.4240    18.8100 c6         1 MUQ       0.073500
     32 N1          18.6450   -12.9270    18.5740 n          1 MUQ      -0.409800
     33 N2          21.0440   -13.3240    18.3610 ns         1 MUQ      -0.509900
     34 N3           8.4580   -12.6450    22.9870 n2         1 MUQ      -0.823100
     35 N4           8.9650   -11.0290    24.4660 nv         1 MUQ      -1.078200
     36 N5          13.1690   -14.8370    21.7310 n7         1 MUQ      -0.840300
     37 O1          19.7690   -12.9450    16.5760 o          1 MUQ      -0.641100
     38 O2          22.5460   -14.0070    24.3370 os         1 MUQ      -0.340100
     39 O3          20.4940   -17.4180    21.7530 oh         1 MUQ      -0.525100
     40 O4          14.0380   -15.8760    23.8060 o          1 MUQ      -0.531000
     41 O5          12.9790   -17.3170    21.9700 o          1 MUQ      -0.531000
     42 S           13.8440   -16.2150    22.3960 sy         1 MUQ       1.139600
     43 H1          17.3900   -11.9700    21.6740 h1         1 MUQ       0.062950
     44 H2          17.1620   -11.0520    20.1850 h1         1 MUQ       0.062950
     45 H3          18.8480   -13.5680    20.5710 h1         1 MUQ       0.065200
     46 H4          19.4450   -11.9210    20.2710 h1         1 MUQ       0.065200
     47 H5          22.3360   -14.3210    19.6810 h1         1 MUQ       0.039033
     48 H6          21.3000   -13.0920    20.4500 h1         1 MUQ       0.039033
     49 H7          20.6080   -14.6710    19.9260 h1         1 MUQ       0.039033
     50 H8          10.5820   -13.2930    21.5520 ha         1 MUQ       0.146000
     51 H9          10.7640    -9.3870    23.4270 ha         1 MUQ       0.116000
     52 H10         12.8380    -8.8990    22.1860 ha         1 MUQ       0.112000
     53 H11         13.8020   -10.5720    20.6280 ha         1 MUQ       0.106000
     54 H12         14.6790   -17.3010    19.7980 ha         1 MUQ       0.141000
     55 H13         16.9050   -17.4640    18.7090 ha         1 MUQ       0.128000
     56 H14         18.9280   -16.6290    19.8530 ha         1 MUQ       0.121000
     57 H15         14.1810   -14.7260    19.8650 h1         1 MUQ       0.082700
     58 H16         13.3040   -12.5520    19.1780 hc         1 MUQ       0.062700
     59 H17         12.0280   -13.6690    19.5790 hc         1 MUQ       0.062700
     60 H18         18.1220   -13.7380    23.1460 ha         1 MUQ       0.132000
     61 H19         20.0850   -12.8320    24.2910 ha         1 MUQ       0.123000
     62 H20         23.5770   -12.5870    25.4710 h1         1 MUQ       0.043033
     63 H21         22.3180   -11.9240    24.4080 h1         1 MUQ       0.043033
     64 H22         21.8660   -12.7890    25.9020 h1         1 MUQ       0.043033
     65 H23         22.4280   -16.2210    23.0180 ha         1 MUQ       0.129000
     66 H24         16.5340   -15.4820    23.2620 ha         1 MUQ       0.134000
     67 H25         17.0870   -11.7960    17.6950 h1         1 MUQ       0.065200
     68 H26         17.3150   -13.3950    16.9730 h1         1 MUQ       0.065200
     69 H27         15.2110   -13.2220    18.3070 h1         1 MUQ       0.062950
     70 H28         16.2870   -14.5140    18.8540 h1         1 MUQ       0.062950
     71 H29         21.8080   -13.3240    17.6970 hn         1 MUQ       0.316500
     72 H30          7.5760   -12.5200    23.4960 hn         1 MUQ       0.371400
     73 H31          8.3860   -11.5140    25.1410 hn         1 MUQ       0.460500
     74 H32          9.7410   -10.5100    24.8610 hn         1 MUQ       0.460500
     75 H33         13.1160   -14.2580    22.5700 hn         1 MUQ       0.504000
     76 H34         21.4040   -17.7440    21.9090 ho         1 MUQ       0.468000
@<TRIPOS>BOND
     1     1     2 1   
     2     1    17 1   
     3     1    43 1   
     4     1    44 1   
     5     2    32 1   
     6     2    45 1   
     7     2    46 1   
     8     3    32 1   
     9     3    33 1   
    10     3    37 2   
    11     4    33 1   
    12     4    47 1   
    13     4    48 1   
    14     4    49 1   
    15     5     6 ar  
    16     5    11 ar  
    17     5    21 1   
    18     6     7 ar  
    19     6    50 1   
    20     7     8 1   
    21     7     9 ar  
    22     8    34 2   
    23     8    35 1   
    24     9    10 ar  
    25     9    51 1   
    26    10    11 ar  
    27    10    52 1   
    28    11    53 1   
    29    12    13 ar  
    30    12    29 ar  
    31    12    42 1   
    32    13    14 ar  
    33    13    54 1   
    34    14    15 ar  
    35    14    55 1   
    36    15    16 ar  
    37    15    56 1   
    38    16    22 1   
    39    16    29 ar  
    40    17    18 1   
    41    17    31 1   
    42    18    19 2   
    43    18    20 1   
    44    20    21 1   
    45    20    36 1   
    46    20    57 1   
    47    21    58 1   
    48    21    59 1   
    49    22    23 ar  
    50    22    28 ar  
    51    23    24 ar  
    52    23    60 1   
    53    24    25 ar  
    54    24    61 1   
    55    25    27 ar  
    56    25    38 1   
    57    26    38 1   
    58    26    62 1   
    59    26    63 1   
    60    26    64 1   
    61    27    28 ar  
    62    27    65 1   
    63    28    39 1   
    64    29    66 1   
    65    30    31 1   
    66    30    32 1   
    67    30    67 1   
    68    30    68 1   
    69    31    69 1   
    70    31    70 1   
    71    33    71 1   
    72    34    72 1   
    73    35    73 1   
    74    35    74 1   
    75    36    42 1   
    76    36    75 1   
    77    39    76 1   
    78    40    42 2   
    79    41    42 2   
@<TRIPOS>SUBSTRUCTURE
     1 MUQ         1 TEMP              0 ****  ****    0 ROOT
