@<TRIPOS>MOLECULE
MUR
   33    33     1     0     0
SMALL
abcg2


@<TRIPOS>ATOM
      1 C1          -1.8330    -0.1350    -1.6880 c6         1 MUR       0.386300
      2 O1          -2.9380    -0.8870    -2.0380 oh         1 MUR      -0.640000
      3 C2          -1.4220    -0.5010    -0.2670 c6         1 MUR       0.153500
      4 N2          -2.4650    -0.1010     0.6540 n8         1 MUR      -1.030200
      5 C3          -0.1250     0.2270     0.0820 c6         1 MUR       0.182300
      6 O3           0.3400    -0.2530     1.3160 os         1 MUR      -0.458000
      7 C4           0.9380     0.0290    -0.9960 c6         1 MUR       0.109300
      8 O4           2.0300     0.8710    -0.7020 oh         1 MUR      -0.707000
      9 C5           0.3570     0.3510    -2.3780 c6         1 MUR       0.156300
     10 O5          -0.8000    -0.4250    -2.5990 os         1 MUR      -0.492000
     11 C6           1.3390     0.0570    -3.4910 c3         1 MUR       0.164600
     12 O6           0.7890     0.4860    -4.7140 oh         1 MUR      -0.709000
     13 C7           0.8500     0.6850     2.2440 c3         1 MUR       0.034300
     14 C8          -0.1330     0.9660     3.4020 c          1 MUR       0.711000
     15 O8          -1.2200     0.3550     3.4290 o          1 MUR      -0.727500
     16 O9           0.2660     1.8040     4.2340 o          1 MUR      -0.727500
     17 C9           2.1780     0.1590     2.7730 c3         1 MUR      -0.071100
     18 H1          -2.0550     0.9470    -1.7210 h2         1 MUR       0.029700
     19 HO1         -3.3830    -0.4730    -2.7840 ho         1 MUR       0.442000
     20 H2          -1.2110    -1.5850    -0.2550 h1         1 MUR       0.037700
     21 HN21        -3.2250    -0.7670     0.6260 hn         1 MUR       0.436000
     22 HN22        -2.1000    -0.1010     1.6040 hn         1 MUR       0.436000
     23 H3          -0.3540     1.3030     0.1440 h1         1 MUR       0.060700
     24 H4           1.2420    -1.0270    -0.9850 h1         1 MUR       0.045700
     25 HO4          2.8460     0.4020    -0.8870 ho         1 MUR       0.492000
     26 H5           0.1060     1.4260    -2.4050 h1         1 MUR       0.054700
     27 H61          2.2790     0.5760    -3.2690 h1         1 MUR       0.021700
     28 H62          1.5580    -1.0200    -3.4980 h1         1 MUR       0.021700
     29 HO6          1.4330     0.3120    -5.4070 ho         1 MUR       0.490000
     30 H7           1.0430     1.6420     1.7430 h1         1 MUR       0.030700
     31 H91          2.0540    -0.8050     3.2700 hc         1 MUR       0.021367
     32 H92          2.8900     0.0300     1.9570 hc         1 MUR       0.021367
     33 H93          2.6060     0.8540     3.4920 hc         1 MUR       0.021367
@<TRIPOS>BOND
     1     1     2 1   
     2     1     3 1   
     3     1    10 1   
     4     1    18 1   
     5     2    19 1   
     6     3     4 1   
     7     3     5 1   
     8     3    20 1   
     9     4    21 1   
    10     4    22 1   
    11     5     6 1   
    12     5     7 1   
    13     5    23 1   
    14     6    13 1   
    15     7     8 1   
    16     7     9 1   
    17     7    24 1   
    18     8    25 1   
    19     9    10 1   
    20     9    11 1   
    21     9    26 1   
    22    11    12 1   
    23    11    27 1   
    24    11    28 1   
    25    12    29 1   
    26    13    14 1   
    27    13    17 1   
    28    13    30 1   
    29    14    15 1   
    30    14    16 1   
    31    17    31 1   
    32    17    32 1   
    33    17    33 1   
@<TRIPOS>SUBSTRUCTURE
     1 MUR         1 TEMP              0 ****  ****    0 ROOT
