@<TRIPOS>MOLECULE
MUR
   33    33     1     0     0
SMALL
No Charge or Current Charge


@<TRIPOS>ATOM
      1 C1          -1.9550    -0.0930    -1.6260 c6         1 MUR       0.386300
      2 O1          -3.0570    -0.8470    -2.0990 oh         1 MUR      -0.640000
      3 C2          -1.3790    -0.6580    -0.2680 c6         1 MUR       0.153500
      4 N2          -2.3420    -0.6040     0.8900 n8         1 MUR      -1.030200
      5 C3          -0.0550     0.1080     0.0540 c6         1 MUR       0.182300
      6 O3           0.5410    -0.3780     1.2900 os         1 MUR      -0.458000
      7 C4           0.9400     0.0080    -1.1470 c6         1 MUR       0.109300
      8 O4           2.1710     0.7100    -0.8780 oh         1 MUR      -0.707000
      9 C5           0.2390     0.5340    -2.4390 c6         1 MUR       0.156300
     10 O5          -0.9840    -0.2150    -2.6700 os         1 MUR      -0.492000
     11 C6           1.1450     0.4030    -3.7100 c3         1 MUR       0.164600
     12 O6           0.4930     0.8240    -4.9250 oh         1 MUR      -0.709000
     13 C7           1.1030     0.6050     2.2080 c3         1 MUR       0.034300
     14 C8           0.0270     1.5040     2.9240 c          1 MUR       0.711000
     15 O8          -1.1630     1.2400     2.7900 o          1 MUR      -0.727500
     16 O9           0.4200     2.4850     3.5430 o          1 MUR      -0.727500
     17 C9           1.9360    -0.1910     3.2350 c3         1 MUR      -0.071100
     18 H1          -2.2440     0.9630    -1.5090 h2         1 MUR       0.029700
     19 HO1         -2.8030    -1.0420    -3.0240 ho         1 MUR       0.442000
     20 H2          -1.1360    -1.7200    -0.4270 h1         1 MUR       0.037700
     21 HN21        -2.2490    -1.4790     1.4170 hn         1 MUR       0.436000
     22 HN22        -1.9580     0.0800     1.5700 hn         1 MUR       0.436000
     23 H3          -0.3170     1.1690     0.1860 h1         1 MUR       0.060700
     24 H4           1.1630    -1.0580    -1.3040 h1         1 MUR       0.045700
     25 HO4          2.5080     0.3470    -0.0270 ho         1 MUR       0.492000
     26 H5          -0.0160     1.5970    -2.3090 h1         1 MUR       0.054700
     27 H61          2.0520     1.0030    -3.5520 h1         1 MUR       0.021700
     28 H62          1.4610    -0.6450    -3.7980 h1         1 MUR       0.021700
     29 HO6          1.1190     0.6380    -5.6640 ho         1 MUR       0.490000
     30 H7           1.7820     1.2820     1.6740 h1         1 MUR       0.030700
     31 H91          1.2920    -0.8510     3.8290 hc         1 MUR       0.021367
     32 H92          2.6920    -0.8040     2.7300 hc         1 MUR       0.021367
     33 H93          2.4550     0.4890     3.9210 hc         1 MUR       0.021367
@<TRIPOS>BOND
     1     1     2 1   
     2     1     3 1   
     3     1    10 1   
     4     1    18 1   
     5     2    19 1   
     6     3     4 1   
     7     3     5 1   
     8     3    20 1   
     9     4    21 1   
    10     4    22 1   
    11     5     6 1   
    12     5     7 1   
    13     5    23 1   
    14     6    13 1   
    15     7     8 1   
    16     7     9 1   
    17     7    24 1   
    18     8    25 1   
    19     9    10 1   
    20     9    11 1   
    21     9    26 1   
    22    11    12 1   
    23    11    27 1   
    24    11    28 1   
    25    12    29 1   
    26    13    14 1   
    27    13    17 1   
    28    13    30 1   
    29    14    15 1   
    30    14    16 1   
    31    17    31 1   
    32    17    32 1   
    33    17    33 1   
@<TRIPOS>SUBSTRUCTURE
     1 MUR         1 TEMP              0 ****  ****    0 ROOT
