@<TRIPOS>MOLECULE
MUS
   57    59     1     0     0
SMALL
abcg2


@<TRIPOS>ATOM
      1 O16          7.4830   -19.6350    -2.0520 oh         1 MUS      -0.720000
      2 C16          6.5780   -19.9550    -3.1130 c3         1 MUS       0.162600
      3 C15          6.8100   -19.0310    -4.2920 c3         1 MUS       0.198300
      4 O15          6.5010   -17.7030    -3.9030 oh         1 MUS      -0.709000
      5 C14          8.2430   -19.1370    -4.8380 c3         1 MUS       0.153300
      6 O14          8.4110   -20.4500    -5.3610 oh         1 MUS      -0.741000
      7 C13          8.5140   -18.0530    -5.8800 c6         1 MUS       0.149300
      8 O13          7.4460   -18.0750    -6.8280 os         1 MUS      -0.464000
      9 C12          9.8220   -18.2350    -6.6540 c6         1 MUS       0.066700
     10 N12         10.9870   -18.1190    -5.7930 ns         1 MUS      -0.489900
     11 C17         11.5820   -19.1640    -5.1920 c          1 MUS       0.601100
     12 C18         12.7840   -18.8520    -4.3390 c3         1 MUS      -0.173100
     13 O17         11.1790   -20.3290    -5.3220 o          1 MUS      -0.636100
     14 C11          9.8950   -17.2450    -7.8380 c6         1 MUS       0.169300
     15 O11          9.9800   -18.0350    -9.0270 oh         1 MUS      -0.653000
     16 C10          8.7150   -16.2740    -7.8500 c6         1 MUS      -0.124400
     17 C9           7.3510   -16.9480    -7.6690 c6         1 MUS       0.257000
     18 C19          6.3250   -15.8870    -7.1240 c          1 MUS       0.702000
     19 O19          6.0590   -15.9390    -5.8960 o          1 MUS      -0.685500
     20 O20          5.9180   -15.0490    -7.9490 o          1 MUS      -0.685500
     21 O9           6.9610   -17.4200    -8.9580 os         1 MUS      -0.333100
     22 C7           5.7320   -17.9560    -9.1570 ca         1 MUS       0.257100
     23 C6           4.8380   -18.3140    -8.1350 ca         1 MUS      -0.175000
     24 C8           5.3830   -18.1570   -10.4900 ca         1 MUS      -0.198000
     25 C8A          4.1480   -18.6990   -10.7910 ca         1 MUS       0.198100
     26 C4A          3.2240   -19.0560    -9.7960 ca         1 MUS      -0.218800
     27 C5           3.6080   -18.8470    -8.4630 ca         1 MUS      -0.027000
     28 O1           3.8590   -18.8680   -12.1170 os         1 MUS      -0.343200
     29 C2           2.6560   -19.3880   -12.5450 c          1 MUS       0.679300
     30 O2           2.5030   -19.4910   -13.7480 o          1 MUS      -0.531000
     31 C3           1.7050   -19.7550   -11.5300 cc         1 MUS      -0.382200
     32 C4           1.9550   -19.6060   -10.2040 cd         1 MUS       0.080600
     33 CM4          0.9400   -19.9990    -9.1790 c3         1 MUS      -0.064900
     34 H16          7.3410   -20.2660    -1.3370 ho         1 MUS       0.480000
     35 H161         5.5420   -19.8330    -2.7800 h1         1 MUS       0.024700
     36 H162         6.7200   -20.9880    -3.4410 h1         1 MUS       0.024700
     37 H15          6.1340   -19.3640    -5.0870 h1         1 MUS       0.048700
     38 H2           6.3730   -17.1430    -4.7070 ho         1 MUS       0.517000
     39 H14          8.9410   -18.9700    -4.0120 h1         1 MUS       0.045700
     40 H1           9.3750   -20.6000    -5.4250 ho         1 MUS       0.530000
     41 H13          8.5310   -17.0940    -5.3560 h1         1 MUS       0.062700
     42 H12          9.8280   -19.2380    -7.0760 h1         1 MUS       0.112700
     43 H4          11.3450   -17.1960    -5.6040 hn         1 MUS       0.308500
     44 H181        13.0360   -17.7930    -4.3320 hc         1 MUS       0.058033
     45 H182        12.5790   -19.1800    -3.3180 hc         1 MUS       0.058033
     46 H183        13.6340   -19.4250    -4.7090 hc         1 MUS       0.058033
     47 H11         10.8070   -16.6490    -7.7390 h1         1 MUS       0.013700
     48 H7           9.9920   -17.4390    -9.7880 ho         1 MUS       0.443000
     49 H101         8.7010   -15.7020    -8.7770 hc         1 MUS       0.070700
     50 H102         8.8620   -15.5590    -7.0390 hc         1 MUS       0.070700
     51 H6           5.1100   -18.1860    -7.1000 ha         1 MUS       0.162000
     52 H8           6.0680   -17.8820   -11.2800 ha         1 MUS       0.140000
     53 H5           2.9280   -19.1150    -7.6680 ha         1 MUS       0.107000
     54 H3           0.7680   -20.1620   -11.8850 ha         1 MUS       0.196000
     55 HM41         0.6650   -19.1410    -8.5610 hc         1 MUS       0.049367
     56 HM42         0.0420   -20.3920    -9.6530 hc         1 MUS       0.049367
     57 HM43         1.3450   -20.7600    -8.5080 hc         1 MUS       0.049367
@<TRIPOS>BOND
     1     1     2 1   
     2     1    34 1   
     3     2     3 1   
     4     2    35 1   
     5     2    36 1   
     6     3     4 1   
     7     3     5 1   
     8     3    37 1   
     9     4    38 1   
    10     5     6 1   
    11     5     7 1   
    12     5    39 1   
    13     6    40 1   
    14     7     8 1   
    15     7     9 1   
    16     7    41 1   
    17     8    17 1   
    18     9    10 1   
    19     9    14 1   
    20     9    42 1   
    21    10    11 1   
    22    10    43 1   
    23    11    12 1   
    24    11    13 2   
    25    12    44 1   
    26    12    45 1   
    27    12    46 1   
    28    14    15 1   
    29    14    16 1   
    30    14    47 1   
    31    15    48 1   
    32    16    17 1   
    33    16    49 1   
    34    16    50 1   
    35    17    18 1   
    36    17    21 1   
    37    18    19 1   
    38    18    20 1   
    39    21    22 1   
    40    22    23 ar  
    41    22    24 ar  
    42    23    27 ar  
    43    23    51 1   
    44    24    25 ar  
    45    24    52 1   
    46    25    26 ar  
    47    25    28 1   
    48    26    27 ar  
    49    26    32 1   
    50    27    53 1   
    51    28    29 1   
    52    29    30 2   
    53    29    31 1   
    54    31    32 2   
    55    31    54 1   
    56    32    33 1   
    57    33    55 1   
    58    33    56 1   
    59    33    57 1   
@<TRIPOS>SUBSTRUCTURE
     1 MUS         1 TEMP              0 ****  ****    0 ROOT
