@<TRIPOS>MOLECULE
MUS
   57    59     1     0     0
SMALL
No Charge or Current Charge


@<TRIPOS>ATOM
      1 O16          7.3400   -19.8580    -1.9610 oh         1 MUS      -0.720000
      2 C16          6.4710   -20.0120    -3.1060 c3         1 MUS       0.162600
      3 C15          6.7910   -18.9970    -4.2550 c3         1 MUS       0.198300
      4 O15          6.5650   -17.6410    -3.7930 oh         1 MUS      -0.709000
      5 C14          8.2380   -19.1630    -4.8460 c3         1 MUS       0.153300
      6 O14          8.4560   -20.5160    -5.3110 oh         1 MUS      -0.741000
      7 C13          8.5740   -18.0970    -5.9470 c6         1 MUS       0.149300
      8 O13          7.5140   -18.0520    -6.9280 os         1 MUS      -0.464000
      9 C12          9.9150   -18.3130    -6.7130 c6         1 MUS       0.066700
     10 N12         11.0870   -18.1460    -5.8270 ns         1 MUS      -0.489900
     11 C17         11.6320   -19.1480    -5.0570 c          1 MUS       0.601100
     12 C18         12.8510   -18.7480    -4.2400 c3         1 MUS      -0.173100
     13 O17         11.1570   -20.2760    -5.0340 o          1 MUS      -0.636100
     14 C11          9.9720   -17.3820    -7.9760 c6         1 MUS       0.169300
     15 O11          9.7680   -18.1490    -9.1660 oh         1 MUS      -0.653000
     16 C10          8.8990   -16.2610    -7.9360 c6         1 MUS      -0.124400
     17 C9           7.4470   -16.8110    -7.6990 c6         1 MUS       0.257000
     18 C19          6.5670   -15.6810    -6.9680 c          1 MUS       0.702000
     19 O19          6.2600   -15.9270    -5.8040 o          1 MUS      -0.685500
     20 O20          5.7630   -15.0660    -7.6620 o          1 MUS      -0.685500
     21 O9           6.9450   -17.1710    -9.0160 os         1 MUS      -0.333100
     22 C7           5.7120   -17.7660    -9.2320 ca         1 MUS       0.257100
     23 C6           4.8110   -18.1230    -8.2050 ca         1 MUS      -0.175000
     24 C8           5.3620   -18.0290   -10.5630 ca         1 MUS      -0.198000
     25 C8A          4.1380   -18.6340   -10.8730 ca         1 MUS       0.198100
     26 C4A          3.2350   -18.9920    -9.8560 ca         1 MUS      -0.218800
     27 C5           3.5820   -18.7300    -8.5140 ca         1 MUS      -0.027000
     28 O1           3.8370   -18.8720   -12.1880 os         1 MUS      -0.343200
     29 C2           2.6750   -19.4560   -12.6100 c          1 MUS       0.679300
     30 O2           2.4490   -19.6490   -13.7950 o          1 MUS      -0.531000
     31 C3           1.7230   -19.8340   -11.5610 cc         1 MUS      -0.382200
     32 C4           1.9610   -19.6250   -10.2240 cd         1 MUS       0.080600
     33 CM4          0.9410   -20.0370    -9.1900 c3         1 MUS      -0.064900
     34 H16          7.0210   -20.4870    -1.2750 ho         1 MUS       0.480000
     35 H161         5.4250   -19.8710    -2.8030 h1         1 MUS       0.024700
     36 H162         6.5490   -21.0340    -3.5010 h1         1 MUS       0.024700
     37 H15          6.0830   -19.2150    -5.0660 h1         1 MUS       0.048700
     38 H2           6.4430   -17.0620    -4.6020 ho         1 MUS       0.517000
     39 H14          8.9320   -18.9680    -4.0170 h1         1 MUS       0.045700
     40 H1           9.4450   -20.6420    -5.2570 ho         1 MUS       0.530000
     41 H13          8.6190   -17.1270    -5.4300 h1         1 MUS       0.062700
     42 H12          9.9290   -19.3480    -7.0840 h1         1 MUS       0.112700
     43 H4          11.5470   -17.2430    -5.7900 hn         1 MUS       0.308500
     44 H181        12.5950   -17.8830    -3.6160 hc         1 MUS       0.058033
     45 H182        13.2470   -19.5750    -3.6410 hc         1 MUS       0.058033
     46 H183        13.6110   -18.3330    -4.9120 hc         1 MUS       0.058033
     47 H11         10.9650   -16.9120    -8.0260 h1         1 MUS       0.013700
     48 H7           8.7920   -18.2350    -9.2540 ho         1 MUS       0.443000
     49 H101         8.9330   -15.6690    -8.8600 hc         1 MUS       0.070700
     50 H102         9.1580   -15.5540    -7.1350 hc         1 MUS       0.070700
     51 H6           5.0430   -17.9390    -7.1630 ha         1 MUS       0.162000
     52 H8           6.0470   -17.7610   -11.3610 ha         1 MUS       0.140000
     53 H5           2.9100   -18.9930    -7.7010 ha         1 MUS       0.107000
     54 H3           0.8100   -20.2950   -11.9170 ha         1 MUS       0.196000
     55 HM41         0.6020   -19.1730    -8.6080 hc         1 MUS       0.049367
     56 HM42         0.0560   -20.4920    -9.6500 hc         1 MUS       0.049367
     57 HM43         1.3630   -20.7720    -8.4940 hc         1 MUS       0.049367
@<TRIPOS>BOND
     1     1     2 1   
     2     1    34 1   
     3     2     3 1   
     4     2    35 1   
     5     2    36 1   
     6     3     4 1   
     7     3     5 1   
     8     3    37 1   
     9     4    38 1   
    10     5     6 1   
    11     5     7 1   
    12     5    39 1   
    13     6    40 1   
    14     7     8 1   
    15     7     9 1   
    16     7    41 1   
    17     8    17 1   
    18     9    10 1   
    19     9    14 1   
    20     9    42 1   
    21    10    11 1   
    22    10    43 1   
    23    11    12 1   
    24    11    13 2   
    25    12    44 1   
    26    12    45 1   
    27    12    46 1   
    28    14    15 1   
    29    14    16 1   
    30    14    47 1   
    31    15    48 1   
    32    16    17 1   
    33    16    49 1   
    34    16    50 1   
    35    17    18 1   
    36    17    21 1   
    37    18    19 1   
    38    18    20 1   
    39    21    22 1   
    40    22    23 ar  
    41    22    24 ar  
    42    23    27 ar  
    43    23    51 1   
    44    24    25 ar  
    45    24    52 1   
    46    25    26 ar  
    47    25    28 1   
    48    26    27 ar  
    49    26    32 1   
    50    27    53 1   
    51    28    29 1   
    52    29    30 2   
    53    29    31 1   
    54    31    32 2   
    55    31    54 1   
    56    32    33 1   
    57    33    55 1   
    58    33    56 1   
    59    33    57 1   
@<TRIPOS>SUBSTRUCTURE
     1 MUS         1 TEMP              0 ****  ****    0 ROOT
