@<TRIPOS>MOLECULE
MUU
   71    73     1     0     0
SMALL
bcc


@<TRIPOS>ATOM
      1 O10          1.9950     2.4130     0.6190 o          1 MUU      -0.605800
      2 S8           3.0440     1.8330    -0.2080 sy         1 MUU       1.321200
      3 O9           3.9870     2.7050    -0.8890 o          1 MUU      -0.605800
      4 C5           3.9570     0.7390     0.8560 ca         1 MUU      -0.253500
      5 C6           5.2950     0.5140     0.5960 ca         1 MUU      -0.067000
      6 C7           6.0100    -0.3750     1.3980 ca         1 MUU       0.120100
      7 O19          7.3020    -0.5460     1.0760 os         1 MUU      -0.316900
      8 C18          8.0890    -1.4120     1.8730 c3         1 MUU       0.123700
      9 C2           5.3690    -1.0140     2.4580 ca         1 MUU      -0.169000
     10 C3           4.0280    -0.7530     2.7110 ca         1 MUU      -0.111000
     11 C4           3.3060     0.1280     1.9240 ca         1 MUU      -0.081000
     12 N11          2.3090     0.9180    -1.3510 n3         1 MUU      -0.765500
     13 C12          2.9290     0.6740    -2.6530 c3         1 MUU       0.255800
     14 C13          3.9650    -0.4190    -2.6740 cx         1 MUU      -0.174700
     15 C15          5.4260    -0.0960    -2.6300 cx         1 MUU      -0.123900
     16 C14          4.8020    -0.5700    -3.9070 cx         1 MUU      -0.123900
     17 C16          1.2210     0.0420    -0.9310 c3         1 MUU       0.190800
     18 C17         -0.1520     0.6860    -1.1070 c3         1 MUU       0.117100
     19 O18         -0.4530     0.9370    -2.4610 oh         1 MUU      -0.582800
     20 C19         -1.2490    -0.1230    -0.4020 c3         1 MUU       0.079700
     21 C32         -1.3470    -1.5830    -0.8830 c3         1 MUU      -0.053100
     22 C38         -2.4810    -2.3110    -0.2200 ca         1 MUU      -0.081300
     23 C33         -2.3170    -2.8820     1.0400 ca         1 MUU      -0.118000
     24 C34         -3.3750    -3.5120     1.6800 ca         1 MUU      -0.126000
     25 C35         -4.6200    -3.5790     1.0680 ca         1 MUU      -0.127000
     26 C36         -4.7950    -3.0150    -0.1880 ca         1 MUU      -0.126000
     27 C37         -3.7320    -2.3880    -0.8250 ca         1 MUU      -0.118000
     28 N20         -2.5180     0.5460    -0.5540 ns         1 MUU      -0.561900
     29 C21         -3.3570     0.8230     0.4610 c          1 MUU       0.674100
     30 O22         -3.0680     0.6610     1.6370 o          1 MUU      -0.606100
     31 C23         -4.7030     1.3740     0.0410 c3         1 MUU      -0.148400
     32 C24         -5.8340     0.6670     0.7800 c3         1 MUU      -0.152400
     33 C25         -7.1950     1.1310     0.3050 c          1 MUU       0.661100
     34 O26         -7.4480     1.2990    -0.8820 o          1 MUU      -0.613100
     35 N27         -8.1070     1.3210     1.2670 ns         1 MUU      -0.573900
     36 C28         -9.4660     1.7140     0.9820 c3         1 MUU       0.095300
     37 H6           5.8030     1.0170    -0.2150 ha         1 MUU       0.168000
     38 H181         8.1450    -1.0720     2.9100 h1         1 MUU       0.043033
     39 H182         7.7120    -2.4370     1.8550 h1         1 MUU       0.043033
     40 H183         9.0880    -1.3990     1.4450 h1         1 MUU       0.043033
     41 H2           5.8960    -1.7080     3.0980 ha         1 MUU       0.138000
     42 H3           3.5440    -1.2420     3.5450 ha         1 MUU       0.135000
     43 H4           2.2710     0.3370     2.1540 ha         1 MUU       0.155000
     44 H121         2.1060     0.4180    -3.3200 h1         1 MUU       0.071200
     45 H122         3.3450     1.6050    -3.0370 h1         1 MUU       0.071200
     46 H13          3.6590    -1.3440    -2.1920 hc         1 MUU       0.077700
     47 H151         5.7120     0.9480    -2.5690 hc         1 MUU       0.077950
     48 H152         6.0820    -0.7690    -2.0940 hc         1 MUU       0.077950
     49 H141         5.0260    -1.5690    -4.2540 hc         1 MUU       0.077950
     50 H142         4.6640     0.1560    -4.7000 hc         1 MUU       0.077950
     51 H161         1.2940    -0.8760    -1.5200 h1         1 MUU       0.051200
     52 H162         1.3490    -0.2750     0.1060 h1         1 MUU       0.051200
     53 H17         -0.1270     1.6670    -0.6290 h1         1 MUU       0.117700
     54 HO18        -0.4540     0.1080    -2.9520 ho         1 MUU       0.393000
     55 H19         -1.0150    -0.1300     0.6640 h1         1 MUU       0.094700
     56 H321        -1.4830    -1.6160    -1.9690 hc         1 MUU       0.045700
     57 H322        -0.4050    -2.0920    -0.6690 hc         1 MUU       0.045700
     58 H33         -1.3490    -2.8360     1.5260 ha         1 MUU       0.127000
     59 H34         -3.2250    -3.9540     2.6570 ha         1 MUU       0.132000
     60 H35         -5.4460    -4.0710     1.5650 ha         1 MUU       0.130000
     61 H36         -5.7610    -3.0640    -0.6760 ha         1 MUU       0.132000
     62 H37         -3.8810    -1.9560    -1.8080 ha         1 MUU       0.127000
     63 HN20        -2.8430     0.7000    -1.4960 hn         1 MUU       0.319500
     64 H231        -4.7210     2.4420     0.2740 hc         1 MUU       0.072700
     65 H232        -4.8460     1.2850    -1.0370 hc         1 MUU       0.072700
     66 H241        -5.7730    -0.4100     0.5950 hc         1 MUU       0.071200
     67 H242        -5.7240     0.8030     1.8560 hc         1 MUU       0.071200
     68 HN27        -7.8440     1.1730     2.2260 hn         1 MUU       0.317500
     69 H281        -9.5010     2.6400     0.4080 h1         1 MUU       0.040033
     70 H282       -10.0030     0.9460     0.4230 h1         1 MUU       0.040033
     71 H283        -9.9830     1.8750     1.9230 h1         1 MUU       0.040033
@<TRIPOS>BOND
     1     1     2 2   
     2     2     3 2   
     3     2     4 1   
     4     2    12 1   
     5     4     5 ar  
     6     4    11 ar  
     7     5     6 ar  
     8     5    37 1   
     9     6     7 1   
    10     6     9 ar  
    11     7     8 1   
    12     8    38 1   
    13     8    39 1   
    14     8    40 1   
    15     9    10 ar  
    16     9    41 1   
    17    10    11 ar  
    18    10    42 1   
    19    11    43 1   
    20    12    13 1   
    21    12    17 1   
    22    13    14 1   
    23    13    44 1   
    24    13    45 1   
    25    14    15 1   
    26    14    16 1   
    27    14    46 1   
    28    15    16 1   
    29    15    47 1   
    30    15    48 1   
    31    16    49 1   
    32    16    50 1   
    33    17    18 1   
    34    17    51 1   
    35    17    52 1   
    36    18    19 1   
    37    18    20 1   
    38    18    53 1   
    39    19    54 1   
    40    20    21 1   
    41    20    28 1   
    42    20    55 1   
    43    21    22 1   
    44    21    56 1   
    45    21    57 1   
    46    22    23 ar  
    47    22    27 ar  
    48    23    24 ar  
    49    23    58 1   
    50    24    25 ar  
    51    24    59 1   
    52    25    26 ar  
    53    25    60 1   
    54    26    27 ar  
    55    26    61 1   
    56    27    62 1   
    57    28    29 1   
    58    28    63 1   
    59    29    30 2   
    60    29    31 1   
    61    31    32 1   
    62    31    64 1   
    63    31    65 1   
    64    32    33 1   
    65    32    66 1   
    66    32    67 1   
    67    33    34 2   
    68    33    35 1   
    69    35    36 1   
    70    35    68 1   
    71    36    69 1   
    72    36    70 1   
    73    36    71 1   
@<TRIPOS>SUBSTRUCTURE
     1 MUU         1 TEMP              0 ****  ****    0 ROOT
