@<TRIPOS>MOLECULE
MUU
   71    73     1     0     0
SMALL
No Charge or Current Charge


@<TRIPOS>ATOM
      1 O10          2.3650     3.2580    -1.7600 o          1 MUU      -0.535000
      2 S8           3.2570     2.1060    -1.5980 sy         1 MUU       1.179600
      3 O9           4.6680     2.1790    -1.9920 o          1 MUU      -0.535000
      4 C5           3.2220     1.5120     0.1120 ca         1 MUU      -0.253500
      5 C6           4.0970     0.4800     0.5150 ca         1 MUU      -0.049000
      6 C7           4.0770    -0.0040     1.8340 ca         1 MUU       0.120100
      7 O19          4.9500    -1.0230     2.1620 os         1 MUU      -0.340100
      8 C18          5.0050    -1.5920     3.4820 c3         1 MUU       0.146900
      9 C2           3.1780     0.5570     2.7680 ca         1 MUU      -0.151000
     10 C3           2.3170     1.5970     2.3760 ca         1 MUU      -0.093000
     11 C4           2.3400     2.0790     1.0570 ca         1 MUU      -0.063000
     12 N11          2.5550     0.8250    -2.5030 n3         1 MUU      -0.765500
     13 C12          3.4260     0.1440    -3.4890 c3         1 MUU       0.255800
     14 C13          4.3630    -0.9240    -2.9150 cx         1 MUU      -0.174700
     15 C15          5.8550    -0.7000    -2.7840 cx         1 MUU      -0.123900
     16 C14          5.3260    -1.6520    -3.8280 cx         1 MUU      -0.123900
     17 C16          1.5850    -0.0700    -1.8110 c3         1 MUU       0.190800
     18 C17          0.2490     0.6230    -1.4220 c3         1 MUU       0.140300
     19 O18         -0.2900     1.2740    -2.5890 oh         1 MUU      -0.645000
     20 C19         -0.8010    -0.3270    -0.7710 c3         1 MUU       0.079700
     21 C32         -1.2510    -1.5190    -1.6630 c3         1 MUU      -0.053100
     22 C38         -2.3850    -2.3330    -1.0440 ca         1 MUU      -0.081300
     23 C33         -2.1460    -3.1320     0.0920 ca         1 MUU      -0.100000
     24 C34         -3.1940    -3.8620     0.6790 ca         1 MUU      -0.108000
     25 C35         -4.4870    -3.8010     0.1330 ca         1 MUU      -0.109000
     26 C36         -4.7310    -3.0100    -1.0020 ca         1 MUU      -0.108000
     27 C37         -3.6840    -2.2780    -1.5880 ca         1 MUU      -0.100000
     28 N20         -1.9730     0.4390    -0.3220 ns         1 MUU      -0.494900
     29 C21         -2.4930     0.4210     0.9530 c          1 MUU       0.607100
     30 O22         -1.9430    -0.1520     1.8820 o          1 MUU      -0.606100
     31 C23         -3.8000     1.1990     1.1290 c3         1 MUU      -0.148400
     32 C24         -5.0170     0.2400     1.2470 c3         1 MUU      -0.152400
     33 C25         -6.3300     1.0040     1.4460 c          1 MUU       0.594100
     34 O26         -6.8760     1.6200     0.5430 o          1 MUU      -0.613100
     35 N27         -6.8710     0.9230     2.7090 ns         1 MUU      -0.506900
     36 C28         -8.1230     1.5650     3.1130 c3         1 MUU       0.095300
     37 H6           4.7940     0.0430    -0.1950 ha         1 MUU       0.150000
     38 H181         5.2700    -0.8290     4.2250 h1         1 MUU       0.043033
     39 H182         4.0380    -2.0320     3.7580 h1         1 MUU       0.043033
     40 H183         5.7630    -2.3840     3.5240 h1         1 MUU       0.043033
     41 H2           3.1370     0.2050     3.7950 ha         1 MUU       0.120000
     42 H3           1.6310     2.0330     3.0990 ha         1 MUU       0.117000
     43 H4           1.6710     2.8910     0.7760 ha         1 MUU       0.137000
     44 H121         2.7870    -0.3570    -4.2290 h1         1 MUU       0.071200
     45 H122         4.0120     0.8760    -4.0620 h1         1 MUU       0.071200
     46 H13          3.8880    -1.5400    -2.1570 hc         1 MUU       0.077700
     47 H151         6.2690     0.2450    -3.1300 hc         1 MUU       0.077950
     48 H152         6.3590    -1.1250    -1.9200 hc         1 MUU       0.077950
     49 H141         5.4730    -2.7170    -3.6630 hc         1 MUU       0.077950
     50 H142         5.3820    -1.3420    -4.8690 hc         1 MUU       0.077950
     51 H161         1.3330    -0.8980    -2.4860 h1         1 MUU       0.051200
     52 H162         2.0300    -0.5330    -0.9220 h1         1 MUU       0.051200
     53 H17          0.4820     1.3820    -0.6660 h1         1 MUU       0.117700
     54 HO18         0.5020     1.5830    -3.0870 ho         1 MUU       0.432000
     55 H19         -0.3190    -0.7610     0.1170 h1         1 MUU       0.094700
     56 H321        -1.5590    -1.1380    -2.6450 hc         1 MUU       0.045700
     57 H322        -0.3970    -2.1800    -1.8480 hc         1 MUU       0.045700
     58 H33         -1.1500    -3.1800     0.5250 ha         1 MUU       0.109000
     59 H34         -3.0040    -4.4740     1.5580 ha         1 MUU       0.114000
     60 H35         -5.2980    -4.3660     0.5870 ha         1 MUU       0.112000
     61 H36         -5.7320    -2.9610    -1.4260 ha         1 MUU       0.114000
     62 H37         -3.8850    -1.6620    -2.4620 ha         1 MUU       0.109000
     63 HN20        -2.4850     0.9660    -1.0180 hn         1 MUU       0.319500
     64 H231        -3.7320     1.7930     2.0470 hc         1 MUU       0.072700
     65 H232        -3.9610     1.8600     0.2680 hc         1 MUU       0.072700
     66 H241        -5.0920    -0.3410     0.3200 hc         1 MUU       0.071200
     67 H242        -4.8470    -0.4390     2.0920 hc         1 MUU       0.071200
     68 HN27        -6.3560     0.3850     3.3960 hn         1 MUU       0.317500
     69 H281        -8.0430     2.6510     2.9770 h1         1 MUU       0.040033
     70 H282        -8.9500     1.1800     2.5020 h1         1 MUU       0.040033
     71 H283        -8.3220     1.3470     4.1700 h1         1 MUU       0.040033
@<TRIPOS>BOND
     1     1     2 2   
     2     2     3 2   
     3     2     4 1   
     4     2    12 1   
     5     4     5 ar  
     6     4    11 ar  
     7     5     6 ar  
     8     5    37 1   
     9     6     7 1   
    10     6     9 ar  
    11     7     8 1   
    12     8    38 1   
    13     8    39 1   
    14     8    40 1   
    15     9    10 ar  
    16     9    41 1   
    17    10    11 ar  
    18    10    42 1   
    19    11    43 1   
    20    12    13 1   
    21    12    17 1   
    22    13    14 1   
    23    13    44 1   
    24    13    45 1   
    25    14    15 1   
    26    14    16 1   
    27    14    46 1   
    28    15    16 1   
    29    15    47 1   
    30    15    48 1   
    31    16    49 1   
    32    16    50 1   
    33    17    18 1   
    34    17    51 1   
    35    17    52 1   
    36    18    19 1   
    37    18    20 1   
    38    18    53 1   
    39    19    54 1   
    40    20    21 1   
    41    20    28 1   
    42    20    55 1   
    43    21    22 1   
    44    21    56 1   
    45    21    57 1   
    46    22    23 ar  
    47    22    27 ar  
    48    23    24 ar  
    49    23    58 1   
    50    24    25 ar  
    51    24    59 1   
    52    25    26 ar  
    53    25    60 1   
    54    26    27 ar  
    55    26    61 1   
    56    27    62 1   
    57    28    29 1   
    58    28    63 1   
    59    29    30 2   
    60    29    31 1   
    61    31    32 1   
    62    31    64 1   
    63    31    65 1   
    64    32    33 1   
    65    32    66 1   
    66    32    67 1   
    67    33    34 2   
    68    33    35 1   
    69    35    36 1   
    70    35    68 1   
    71    36    69 1   
    72    36    70 1   
    73    36    71 1   
@<TRIPOS>SUBSTRUCTURE
     1 MUU         1 TEMP              0 ****  ****    0 ROOT
