@<TRIPOS>MOLECULE
MUV
   64    66     1     0     0
SMALL
No Charge or Current Charge


@<TRIPOS>ATOM
      1 O26          6.9170    -0.1910     3.1360 o          1 MUV      -0.604100
      2 C25          6.4470    -0.4180     2.0300 c          1 MUV       0.594100
      3 N27          6.9730    -1.3730     1.1920 ns         1 MUV      -0.510900
      4 C28          8.1190    -2.2230     1.5250 c3         1 MUV       0.095300
      5 C24          5.2560     0.3610     1.4650 c3         1 MUV      -0.152400
      6 C23          3.9180    -0.0440     2.1450 c3         1 MUV      -0.147400
      7 C21          2.7370     0.7190     1.5390 c          1 MUV       0.604100
      8 O22          2.5170     1.8940     1.7930 o          1 MUV      -0.606100
      9 N20          1.9330    -0.0250     0.7060 ns         1 MUV      -0.495900
     10 C19          0.8410     0.5120    -0.1200 c3         1 MUV       0.081700
     11 C32          1.2430     0.4680    -1.6230 c3         1 MUV      -0.054100
     12 C38          2.6590     0.9810    -1.8820 ca         1 MUV      -0.079300
     13 C37          3.6650     0.1010    -2.3300 ca         1 MUV      -0.101000
     14 C36          4.9730     0.5680    -2.5450 ca         1 MUV      -0.108500
     15 C35          5.2850     1.9180    -2.3120 ca         1 MUV      -0.109000
     16 C34          4.2860     2.8010    -1.8680 ca         1 MUV      -0.108500
     17 C33          2.9770     2.3340    -1.6560 ca         1 MUV      -0.101000
     18 C17         -0.5040    -0.2000     0.2270 c3         1 MUV       0.144300
     19 O18         -0.4320    -1.6100    -0.0600 oh         1 MUV      -0.653000
     20 C16         -1.7470     0.3910    -0.5000 c3         1 MUV       0.201800
     21 N11         -3.0110    -0.3870    -0.3090 n3         1 MUV      -0.782500
     22 C12         -4.0770    -0.0400    -1.2770 c3         1 MUV       0.258800
     23 C13         -3.6820    -0.2030    -2.7430 cx         1 MUV      -0.139700
     24 C14         -4.5650     0.3410    -3.8440 cx         1 MUV      -0.134400
     25 C15         -3.2180     0.9720    -3.5780 cx         1 MUV      -0.134400
     26 S8          -3.5730    -0.4300     1.3100 sy         1 MUV       1.164200
     27 O9          -2.8920    -1.5790     1.9170 o          1 MUV      -0.525000
     28 O10         -3.4080     0.9320     1.8290 o          1 MUV      -0.525000
     29 C5          -5.3430    -0.8060     1.3390 cc         1 MUV      -0.120100
     30 O4          -6.3110     0.1820     1.3040 os         1 MUV      -0.191000
     31 C3          -7.5320    -0.4570     1.3170 cc         1 MUV       0.167900
     32 C2          -7.3360    -1.8110     1.3560 cd         1 MUV      -0.212000
     33 C1          -5.9440    -2.0370     1.3690 cd         1 MUV      -0.045000
     34 HN27         6.5280    -1.4900     0.2890 hn         1 MUV       0.313500
     35 H281         7.8920    -2.8160     2.4200 h1         1 MUV       0.040033
     36 H282         8.3290    -2.8990     0.6870 h1         1 MUV       0.040033
     37 H283         9.0000    -1.5970     1.7150 h1         1 MUV       0.040033
     38 H241         5.4250     1.4300     1.6380 hc         1 MUV       0.071700
     39 H242         5.1670     0.1760     0.3880 hc         1 MUV       0.071700
     40 H231         3.7740    -1.1230     2.0140 hc         1 MUV       0.073200
     41 H232         3.9810     0.1960     3.2130 hc         1 MUV       0.073200
     42 HN20         2.1760    -1.0010     0.5850 hn         1 MUV       0.318500
     43 H19          0.7100     1.5710     0.1400 h1         1 MUV       0.091700
     44 H321         1.1480    -0.5610    -1.9910 hc         1 MUV       0.048700
     45 H322         0.5340     1.0660    -2.2080 hc         1 MUV       0.048700
     46 H37          3.4360    -0.9480    -2.5060 ha         1 MUV       0.108500
     47 H36          5.7450    -0.1160    -2.8890 ha         1 MUV       0.111500
     48 H35          6.2970     2.2800    -2.4760 ha         1 MUV       0.112000
     49 H34          4.5260     3.8460    -1.6870 ha         1 MUV       0.111500
     50 H33          2.2120     3.0240    -1.3070 ha         1 MUV       0.108500
     51 H17         -0.6600    -0.0540     1.3050 h1         1 MUV       0.111700
     52 HO18        -1.3750    -1.8900    -0.1310 ho         1 MUV       0.446000
     53 H161        -1.8820     1.4360    -0.1890 h1         1 MUV       0.057700
     54 H162        -1.4960     0.4210    -1.5650 h1         1 MUV       0.057700
     55 H121        -4.9450    -0.6960    -1.1320 h1         1 MUV       0.053200
     56 H122        -4.4220     0.9900    -1.1090 h1         1 MUV       0.053200
     57 H13         -3.2120    -1.1650    -2.9340 hc         1 MUV       0.104700
     58 H141        -4.6760    -0.2560    -4.7470 hc         1 MUV       0.073700
     59 H142        -5.4520     0.9040    -3.5600 hc         1 MUV       0.073700
     60 H151        -3.2030     1.9560    -3.1140 hc         1 MUV       0.073700
     61 H152        -2.4230     0.7970    -4.2990 hc         1 MUV       0.073700
     62 H3          -8.4260     0.1510     1.2950 h4         1 MUV       0.058100
     63 H2          -8.1150    -2.5660     1.3720 ha         1 MUV       0.149000
     64 H1          -5.4400    -2.9990     1.3930 ha         1 MUV       0.162000
@<TRIPOS>BOND
     1     1     2 2   
     2     2     3 1   
     3     2     5 1   
     4     3     4 1   
     5     3    34 1   
     6     4    35 1   
     7     4    36 1   
     8     4    37 1   
     9     5     6 1   
    10     5    38 1   
    11     5    39 1   
    12     6     7 1   
    13     6    40 1   
    14     6    41 1   
    15     7     8 2   
    16     7     9 1   
    17     9    10 1   
    18     9    42 1   
    19    10    11 1   
    20    10    18 1   
    21    10    43 1   
    22    11    12 1   
    23    11    44 1   
    24    11    45 1   
    25    12    13 ar  
    26    12    17 ar  
    27    13    14 ar  
    28    13    46 1   
    29    14    15 ar  
    30    14    47 1   
    31    15    16 ar  
    32    15    48 1   
    33    16    17 ar  
    34    16    49 1   
    35    17    50 1   
    36    18    19 1   
    37    18    20 1   
    38    18    51 1   
    39    19    52 1   
    40    20    21 1   
    41    20    53 1   
    42    20    54 1   
    43    21    22 1   
    44    21    26 1   
    45    22    23 1   
    46    22    55 1   
    47    22    56 1   
    48    23    24 1   
    49    23    25 1   
    50    23    57 1   
    51    24    25 1   
    52    24    58 1   
    53    24    59 1   
    54    25    60 1   
    55    25    61 1   
    56    26    27 2   
    57    26    28 2   
    58    26    29 1   
    59    29    30 1   
    60    29    33 2   
    61    30    31 1   
    62    31    32 2   
    63    31    62 1   
    64    32    33 1   
    65    32    63 1   
    66    33    64 1   
@<TRIPOS>SUBSTRUCTURE
     1 MUV         1 TEMP              0 ****  ****    0 ROOT
