@<TRIPOS>MOLECULE
MUV
   64    66     1     0     0
SMALL
bcc


@<TRIPOS>ATOM
      1 O26          6.3520    -1.6000     2.6930 o          1 MUV      -0.604100
      2 C25          6.3590    -0.7370     1.8250 c          1 MUV       0.661100
      3 N27          7.4730    -0.3940     1.1640 ns         1 MUV      -0.577900
      4 C28          8.7610    -0.9770     1.4560 c3         1 MUV       0.095300
      5 C24          5.1160     0.0400     1.4480 c3         1 MUV      -0.152400
      6 C23          3.8650    -0.8280     1.4840 c3         1 MUV      -0.147400
      7 C21          2.6240    -0.0010     1.2190 c          1 MUV       0.671100
      8 O22          2.4600     1.0950     1.7340 o          1 MUV      -0.606100
      9 N20          1.7220    -0.5770     0.4020 ns         1 MUV      -0.562900
     10 C19          0.5580     0.0990    -0.1210 c3         1 MUV       0.081700
     11 C32          0.7840     0.4260    -1.6090 c3         1 MUV      -0.054100
     12 C38          2.0220     1.2540    -1.8060 ca         1 MUV      -0.079300
     13 C37          3.2430     0.6570    -2.1070 ca         1 MUV      -0.119000
     14 C36          4.3990     1.4170    -2.2260 ca         1 MUV      -0.126500
     15 C35          4.3480     2.7930    -2.0470 ca         1 MUV      -0.127000
     16 C34          3.1340     3.4010    -1.7520 ca         1 MUV      -0.126500
     17 C33          1.9830     2.6360    -1.6310 ca         1 MUV      -0.119000
     18 C17         -0.6980    -0.7460     0.1420 c3         1 MUV       0.121100
     19 O18         -0.6790    -1.9590    -0.5650 oh         1 MUV      -0.590800
     20 C16         -1.9620     0.0910    -0.0870 c3         1 MUV       0.201800
     21 N11         -3.1880    -0.6880    -0.1920 n3         1 MUV      -0.782500
     22 C12         -3.8890    -0.7520    -1.4740 c3         1 MUV       0.258800
     23 C13         -3.3020    -1.7600    -2.4230 cx         1 MUV      -0.139700
     24 C14         -3.6080    -1.6200    -3.8780 cx         1 MUV      -0.134400
     25 C15         -2.2160    -1.3640    -3.3900 cx         1 MUV      -0.134400
     26 S8          -3.9730    -1.1740     1.1490 sy         1 MUV       1.305800
     27 O9          -4.6970    -2.3970     0.8590 o          1 MUV      -0.595800
     28 O10         -3.0260    -1.1160     2.2480 o          1 MUV      -0.595800
     29 C5          -5.2180     0.0180     1.4480 cc         1 MUV      -0.010400
     30 O4          -4.8220     1.2540     1.8050 os         1 MUV      -0.279800
     31 C3          -5.9370     1.9950     1.9380 cc         1 MUV       0.277600
     32 C2          -7.0370     1.2510     1.6690 cd         1 MUV      -0.295300
     33 C1          -6.5660    -0.0520     1.3410 cd         1 MUV      -0.128300
     34 HN27         7.4260     0.3270     0.4650 hn         1 MUV       0.313500
     35 H281         8.7550    -2.0570     1.3080 h1         1 MUV       0.040033
     36 H282         9.4950    -0.5450     0.7810 h1         1 MUV       0.040033
     37 H283         9.0760    -0.7750     2.4810 h1         1 MUV       0.040033
     38 H241         5.0150     0.8610     2.1620 hc         1 MUV       0.071700
     39 H242         5.2240     0.5000     0.4630 hc         1 MUV       0.071700
     40 H231         3.9510    -1.6440     0.7640 hc         1 MUV       0.073200
     41 H232         3.7630    -1.2880     2.4700 hc         1 MUV       0.073200
     42 HN20         1.9530    -1.4670    -0.0120 hn         1 MUV       0.318500
     43 H19          0.4570     1.0340     0.4320 h1         1 MUV       0.091700
     44 H321         0.8690    -0.5030    -2.1790 hc         1 MUV       0.048700
     45 H322        -0.0810     0.9620    -2.0070 hc         1 MUV       0.048700
     46 H37          3.2920    -0.4160    -2.2530 ha         1 MUV       0.126500
     47 H36          5.3380     0.9350    -2.4640 ha         1 MUV       0.129500
     48 H35          5.2470     3.3890    -2.1410 ha         1 MUV       0.130000
     49 H34          3.0840     4.4740    -1.6170 ha         1 MUV       0.129500
     50 H33          1.0420     3.1190    -1.3950 ha         1 MUV       0.126500
     51 H17         -0.6700    -1.0240     1.1970 h1         1 MUV       0.111700
     52 HO18        -0.9710    -1.8210    -1.4730 ho         1 MUV       0.407000
     53 H161        -2.0280     0.8380     0.7070 h1         1 MUV       0.057700
     54 H162        -1.9000     0.6650    -1.0130 h1         1 MUV       0.057700
     55 H121        -4.9380    -0.9950    -1.2990 h1         1 MUV       0.053200
     56 H122        -3.8820     0.2450    -1.9240 h1         1 MUV       0.053200
     57 H13         -3.2610    -2.7710    -2.0340 hc         1 MUV       0.104700
     58 H141        -3.7940    -2.5200    -4.4490 hc         1 MUV       0.073700
     59 H142        -4.1920    -0.7630    -4.1930 hc         1 MUV       0.073700
     60 H151        -1.8680    -0.3380    -3.3890 hc         1 MUV       0.073700
     61 H152        -1.4540    -2.0940    -3.6400 hc         1 MUV       0.073700
     62 H3          -5.8000     3.0230     2.2310 h4         1 MUV       0.058100
     63 H2          -8.0610     1.5850     1.7000 ha         1 MUV       0.167000
     64 H1          -7.1520    -0.9140     1.0670 ha         1 MUV       0.180000
@<TRIPOS>BOND
     1     1     2 2   
     2     2     3 1   
     3     2     5 1   
     4     3     4 1   
     5     3    34 1   
     6     4    35 1   
     7     4    36 1   
     8     4    37 1   
     9     5     6 1   
    10     5    38 1   
    11     5    39 1   
    12     6     7 1   
    13     6    40 1   
    14     6    41 1   
    15     7     8 2   
    16     7     9 1   
    17     9    10 1   
    18     9    42 1   
    19    10    11 1   
    20    10    18 1   
    21    10    43 1   
    22    11    12 1   
    23    11    44 1   
    24    11    45 1   
    25    12    13 ar  
    26    12    17 ar  
    27    13    14 ar  
    28    13    46 1   
    29    14    15 ar  
    30    14    47 1   
    31    15    16 ar  
    32    15    48 1   
    33    16    17 ar  
    34    16    49 1   
    35    17    50 1   
    36    18    19 1   
    37    18    20 1   
    38    18    51 1   
    39    19    52 1   
    40    20    21 1   
    41    20    53 1   
    42    20    54 1   
    43    21    22 1   
    44    21    26 1   
    45    22    23 1   
    46    22    55 1   
    47    22    56 1   
    48    23    24 1   
    49    23    25 1   
    50    23    57 1   
    51    24    25 1   
    52    24    58 1   
    53    24    59 1   
    54    25    60 1   
    55    25    61 1   
    56    26    27 2   
    57    26    28 2   
    58    26    29 1   
    59    29    30 1   
    60    29    33 2   
    61    30    31 1   
    62    31    32 2   
    63    31    62 1   
    64    32    33 1   
    65    32    63 1   
    66    33    64 1   
@<TRIPOS>SUBSTRUCTURE
     1 MUV         1 TEMP              0 ****  ****    0 ROOT
