@<TRIPOS>MOLECULE
MUW
   91    93     1     0     0
SMALL
No Charge or Current Charge


@<TRIPOS>ATOM
      1 O9          -5.2440     1.7070     0.6320 o          1 MUW      -0.543000
      2 S7          -3.9920     1.4440    -0.0860 sy         1 MUW       1.174600
      3 O8          -3.6910     2.0690    -1.3790 o          1 MUW      -0.543000
      4 C1          -2.5730     1.8030     0.9750 ca         1 MUW      -0.301500
      5 C2          -1.2700     1.7750     0.4380 ca         1 MUW      -0.022500
      6 C3          -0.1660     2.0820     1.2520 ca         1 MUW      -0.127000
      7 C4          -0.3450     2.4200     2.6070 ca         1 MUW      -0.025300
      8 C15          0.8570     2.7480     3.4880 c3         1 MUW       0.179100
      9 N45          0.9190     4.1850     3.8340 n8         1 MUW      -1.000200
     10 C5          -1.6490     2.4580     3.1370 ca         1 MUW      -0.127000
     11 C6          -2.7590     2.1630     2.3260 ca         1 MUW      -0.022500
     12 N10         -3.9070    -0.2440    -0.3440 n3         1 MUW      -0.765500
     13 C11         -3.2150    -1.1320     0.6190 c3         1 MUW       0.223800
     14 C12         -3.8170    -1.2130     2.0510 c3         1 MUW      -0.072700
     15 C13         -5.2460    -1.8010     2.0840 c3         1 MUW      -0.082100
     16 C14         -2.8740    -1.9960     2.9930 c3         1 MUW      -0.082100
     17 C16         -4.3870    -0.7980    -1.6450 c3         1 MUW       0.244500
     18 C22         -5.6570    -1.7070    -1.5240 c3         1 MUW       0.159600
     19 O23         -5.3670    -3.0370    -1.0460 oh         1 MUW      -0.663000
     20 C17         -3.2760    -1.4760    -2.5030 c3         1 MUW      -0.088400
     21 C18         -2.0250    -0.6090    -2.7880 c3         1 MUW      -0.081400
     22 C19         -1.1060    -1.2310    -3.8650 c3         1 MUW      -0.092400
     23 C20          0.1660    -0.4090    -4.1550 c3         1 MUW       0.099000
     24 N21          1.1740    -0.5720    -3.1090 ns         1 MUW      -0.495900
     25 C39          2.2620     0.2570    -2.9250 c          1 MUW       0.573100
     26 O40          2.4200     1.2500    -3.6270 o          1 MUW      -0.586100
     27 C37          3.2670    -0.1700    -1.7990 c3         1 MUW       0.071700
     28 N38          4.3000     0.8760    -1.5890 ns         1 MUW      -0.491900
     29 C41          4.1000     2.0800    -0.9740 c          1 MUW       0.652100
     30 O42          5.2850     2.7500    -0.9330 os         1 MUW      -0.465100
     31 C44          5.2970     4.0460    -0.3100 c3         1 MUW       0.172900
     32 O43          3.0360     2.4870    -0.5380 o          1 MUW      -0.524000
     33 C30          2.5730    -0.6450    -0.4730 c3         1 MUW       0.019900
     34 C24          1.8370    -1.9840    -0.6110 ca         1 MUW      -0.077800
     35 C25          0.4990    -2.0880    -0.1810 ca         1 MUW      -0.101250
     36 C26         -0.2050    -3.2950    -0.3240 ca         1 MUW      -0.112250
     37 C27          0.4230    -4.4130    -0.8930 ca         1 MUW      -0.109500
     38 C28          1.7600    -4.3250    -1.3110 ca         1 MUW      -0.112250
     39 C29          2.4660    -3.1190    -1.1670 ca         1 MUW      -0.101250
     40 C31          3.5120    -0.7200     0.7390 ca         1 MUW      -0.077800
     41 C32          4.8080    -1.2720     0.6390 ca         1 MUW      -0.101250
     42 C33          5.6440    -1.3350     1.7670 ca         1 MUW      -0.112250
     43 C34          5.1920    -0.8560     3.0070 ca         1 MUW      -0.109500
     44 C35          3.9000    -0.3190     3.1200 ca         1 MUW      -0.112250
     45 C36          3.0630    -0.2560     1.9930 ca         1 MUW      -0.101250
     46 H2          -1.1100     1.5260    -0.6090 ha         1 MUW       0.132000
     47 H3           0.8320     2.0660     0.8250 ha         1 MUW       0.126500
     48 H151         0.7990     2.1590     4.4150 h1         1 MUW       0.052700
     49 H152         1.7860     2.4680     2.9700 h1         1 MUW       0.052700
     50 H451         1.7890     4.3690     4.3490 hn         1 MUW       0.402000
     51 H452         1.0290     4.7270     2.9690 hn         1 MUW       0.402000
     52 H5          -1.8010     2.7280     4.1790 ha         1 MUW       0.126500
     53 H6          -3.7580     2.2150     2.7550 ha         1 MUW       0.132000
     54 H111        -3.1900    -2.1560     0.2270 h1         1 MUW       0.045200
     55 H112        -2.1680    -0.8190     0.7030 h1         1 MUW       0.045200
     56 H12         -3.8880    -0.2010     2.4560 hc         1 MUW       0.076700
     57 H131        -5.6380    -1.8020     3.1080 hc         1 MUW       0.033367
     58 H132        -5.9280    -1.2060     1.4670 hc         1 MUW       0.033367
     59 H133        -5.2520    -2.8340     1.7170 hc         1 MUW       0.033367
     60 H141        -1.8820    -1.5300     3.0220 hc         1 MUW       0.033367
     61 H142        -3.2700    -2.0110     4.0150 hc         1 MUW       0.033367
     62 H143        -2.7570    -3.0330     2.6540 hc         1 MUW       0.033367
     63 H16         -4.7390     0.0410    -2.2610 h1         1 MUW       0.066700
     64 H221        -6.3820    -1.2120    -0.8650 h1         1 MUW       0.033700
     65 H222        -6.1220    -1.7720    -2.5160 h1         1 MUW       0.033700
     66 HO23        -6.2260    -3.5060    -0.9690 ho         1 MUW       0.446000
     67 H171        -2.9510    -2.4080    -2.0270 hc         1 MUW       0.056700
     68 H172        -3.7240    -1.7650    -3.4620 hc         1 MUW       0.056700
     69 H181        -2.3410     0.3860    -3.1240 hc         1 MUW       0.044200
     70 H182        -1.4600    -0.4740    -1.8580 hc         1 MUW       0.044200
     71 H191        -0.8240    -2.2510    -3.5750 hc         1 MUW       0.046700
     72 H192        -1.6760    -1.3160    -4.7990 hc         1 MUW       0.046700
     73 H201         0.6040    -0.7490    -5.1030 h1         1 MUW       0.052700
     74 H202        -0.0930     0.6530    -4.2610 h1         1 MUW       0.052700
     75 HN21         1.1020    -1.3780    -2.4980 hn         1 MUW       0.310500
     76 H37          3.8050    -1.0290    -2.2150 h1         1 MUW       0.054700
     77 HN38         5.2450     0.7030    -1.9050 hn         1 MUW       0.327500
     78 H441         6.3060     4.4760    -0.3410 h1         1 MUW       0.047367
     79 H442         4.6170     4.7360    -0.8270 h1         1 MUW       0.047367
     80 H443         4.9890     3.9770     0.7420 h1         1 MUW       0.047367
     81 H30          1.8260     0.1280    -0.2550 hc         1 MUW       0.106700
     82 H25          0.0020    -1.2300     0.2640 ha         1 MUW       0.116000
     83 H26         -1.2370    -3.3690     0.0100 ha         1 MUW       0.113250
     84 H27         -0.1220    -5.3480    -1.0030 ha         1 MUW       0.113500
     85 H28          2.2520    -5.1940    -1.7430 ha         1 MUW       0.113250
     86 H29          3.5040    -3.0780    -1.4870 ha         1 MUW       0.116000
     87 H32          5.1730    -1.6530    -0.3110 ha         1 MUW       0.116000
     88 H33          6.6430    -1.7570     1.6790 ha         1 MUW       0.113250
     89 H34          5.8400    -0.9050     3.8800 ha         1 MUW       0.113500
     90 H35          3.5440     0.0440     4.0820 ha         1 MUW       0.113250
     91 H36          2.0600     0.1500     2.0980 ha         1 MUW       0.116000
@<TRIPOS>BOND
     1     1     2 2   
     2     2     3 2   
     3     2     4 1   
     4     2    12 1   
     5     4     5 ar  
     6     4    11 ar  
     7     5     6 ar  
     8     5    46 1   
     9     6     7 ar  
    10     6    47 1   
    11     7     8 1   
    12     7    10 ar  
    13     8     9 1   
    14     8    48 1   
    15     8    49 1   
    16     9    50 1   
    17     9    51 1   
    18    10    11 ar  
    19    10    52 1   
    20    11    53 1   
    21    12    13 1   
    22    12    17 1   
    23    13    14 1   
    24    13    54 1   
    25    13    55 1   
    26    14    15 1   
    27    14    16 1   
    28    14    56 1   
    29    15    57 1   
    30    15    58 1   
    31    15    59 1   
    32    16    60 1   
    33    16    61 1   
    34    16    62 1   
    35    17    18 1   
    36    17    20 1   
    37    17    63 1   
    38    18    19 1   
    39    18    64 1   
    40    18    65 1   
    41    19    66 1   
    42    20    21 1   
    43    20    67 1   
    44    20    68 1   
    45    21    22 1   
    46    21    69 1   
    47    21    70 1   
    48    22    23 1   
    49    22    71 1   
    50    22    72 1   
    51    23    24 1   
    52    23    73 1   
    53    23    74 1   
    54    24    25 1   
    55    24    75 1   
    56    25    26 2   
    57    25    27 1   
    58    27    28 1   
    59    27    33 1   
    60    27    76 1   
    61    28    29 1   
    62    28    77 1   
    63    29    30 1   
    64    29    32 2   
    65    30    31 1   
    66    31    78 1   
    67    31    79 1   
    68    31    80 1   
    69    33    34 1   
    70    33    40 1   
    71    33    81 1   
    72    34    35 ar  
    73    34    39 ar  
    74    35    36 ar  
    75    35    82 1   
    76    36    37 ar  
    77    36    83 1   
    78    37    38 ar  
    79    37    84 1   
    80    38    39 ar  
    81    38    85 1   
    82    39    86 1   
    83    40    41 ar  
    84    40    45 ar  
    85    41    42 ar  
    86    41    87 1   
    87    42    43 ar  
    88    42    88 1   
    89    43    44 ar  
    90    43    89 1   
    91    44    45 ar  
    92    44    90 1   
    93    45    91 1   
@<TRIPOS>SUBSTRUCTURE
     1 MUW         1 TEMP              0 ****  ****    0 ROOT
