@<TRIPOS>MOLECULE
MUW
   91    93     1     0     0
SMALL
abcg2


@<TRIPOS>ATOM
      1 O9          -5.6460     0.3570     1.8390 o          1 MUW      -0.543000
      2 S7          -5.2790     0.5640     0.4470 sy         1 MUW       1.174600
      3 O8          -6.2780     1.0850    -0.4760 o          1 MUW      -0.543000
      4 C1          -3.9030     1.6760     0.4370 ca         1 MUW      -0.301500
      5 C2          -3.7400     2.5640    -0.6160 ca         1 MUW      -0.022500
      6 C3          -2.6060     3.3580    -0.6620 ca         1 MUW      -0.127000
      7 C4          -1.6230     3.2700     0.3200 ca         1 MUW      -0.025300
      8 C15         -0.3630     4.0880     0.2100 c3         1 MUW       0.179100
      9 N45          0.1370     4.5030     1.5070 n8         1 MUW      -1.000200
     10 C5          -1.8190     2.3910     1.3840 ca         1 MUW      -0.127000
     11 C6          -2.9540     1.6010     1.4530 ca         1 MUW      -0.022500
     12 N10         -4.7490    -0.8720    -0.1580 n3         1 MUW      -0.765500
     13 C11         -4.0040    -1.7810     0.7150 c3         1 MUW       0.223800
     14 C12         -4.7740    -2.4760     1.8450 c3         1 MUW      -0.072700
     15 C13         -6.1190    -3.0300     1.3990 c3         1 MUW      -0.082100
     16 C14         -3.8850    -3.5870     2.3990 c3         1 MUW      -0.082100
     17 C16         -4.6540    -1.0110    -1.6290 c3         1 MUW       0.244500
     18 C22         -5.6890    -1.9940    -2.1570 c3         1 MUW       0.159600
     19 O23         -5.2970    -3.3170    -1.8810 oh         1 MUW      -0.663000
     20 C17         -3.2430    -1.3170    -2.1410 c3         1 MUW      -0.088400
     21 C18         -2.2380    -0.2150    -1.8440 c3         1 MUW      -0.081400
     22 C19         -0.8110    -0.5730    -2.2250 c3         1 MUW      -0.092400
     23 C20          0.1290     0.5880    -1.9330 c3         1 MUW       0.099000
     24 N21          1.5060     0.1370    -1.9080 ns         1 MUW      -0.495900
     25 C39          2.4920     0.8630    -1.3660 c          1 MUW       0.573100
     26 O40          2.4020     2.0570    -1.1300 o          1 MUW      -0.586100
     27 C37          3.7490     0.0690    -1.0000 c3         1 MUW       0.071700
     28 N38          4.9500     0.7770    -1.3550 ns         1 MUW      -0.491900
     29 C41          5.5200     1.7890    -0.6680 c          1 MUW       0.652100
     30 O42          6.5620     2.2730    -1.3580 os         1 MUW      -0.465100
     31 C44          7.3020     3.3240    -0.7490 c3         1 MUW       0.172900
     32 O43          5.1880     2.2090     0.4190 o          1 MUW      -0.524000
     33 C30          3.6650    -0.3320     0.4930 c3         1 MUW       0.019900
     34 C24          2.3920    -1.1190     0.7390 ca         1 MUW      -0.077800
     35 C25          1.3020    -0.4900     1.3340 ca         1 MUW      -0.101250
     36 C26          0.0950    -1.1560     1.4970 ca         1 MUW      -0.112250
     37 C27         -0.0370    -2.4690     1.0680 ca         1 MUW      -0.109500
     38 C28          1.0490    -3.1120     0.4860 ca         1 MUW      -0.112250
     39 C29          2.2530    -2.4420     0.3260 ca         1 MUW      -0.101250
     40 C31          4.8960    -1.0650     0.9730 ca         1 MUW      -0.077800
     41 C32          5.6120    -1.9510     0.1740 ca         1 MUW      -0.101250
     42 C33          6.7120    -2.6340     0.6780 ca         1 MUW      -0.112250
     43 C34          7.1160    -2.4380     1.9910 ca         1 MUW      -0.109500
     44 C35          6.4110    -1.5520     2.7960 ca         1 MUW      -0.112250
     45 C36          5.3150    -0.8720     2.2870 ca         1 MUW      -0.101250
     46 H2          -4.4830     2.6430    -1.3980 ha         1 MUW       0.132000
     47 H3          -2.4860     4.0580    -1.4800 ha         1 MUW       0.126500
     48 H151         0.4000     3.4640    -0.2620 h1         1 MUW       0.052700
     49 H152        -0.5470     4.9170    -0.4860 h1         1 MUW       0.052700
     50 H451         1.0650     4.8880     1.4010 hn         1 MUW       0.402000
     51 H452        -0.4390     5.2520     1.8700 hn         1 MUW       0.402000
     52 H5          -1.0790     2.3340     2.1710 ha         1 MUW       0.126500
     53 H6          -3.0950     0.9400     2.2980 ha         1 MUW       0.132000
     54 H111        -3.6130    -2.5590     0.0640 h1         1 MUW       0.045200
     55 H112        -3.1230    -1.2780     1.1350 h1         1 MUW       0.045200
     56 H12         -4.9420    -1.7610     2.6500 hc         1 MUW       0.076700
     57 H131        -6.6300    -3.5080     2.2370 hc         1 MUW       0.033367
     58 H132        -6.7720    -2.2450     1.0180 hc         1 MUW       0.033367
     59 H133        -5.9950    -3.7720     0.6110 hc         1 MUW       0.033367
     60 H141        -2.9030    -3.2110     2.6960 hc         1 MUW       0.033367
     61 H142        -4.3370    -4.0440     3.2800 hc         1 MUW       0.033367
     62 H143        -3.7310    -4.3760     1.6590 hc         1 MUW       0.033367
     63 H16         -4.9380    -0.0510    -2.0640 h1         1 MUW       0.066700
     64 H221        -6.6550    -1.7490    -1.7030 h1         1 MUW       0.033700
     65 H222        -5.7860    -1.8270    -3.2380 h1         1 MUW       0.033700
     66 HO23        -6.0450    -3.8960    -2.0520 ho         1 MUW       0.446000
     67 H171        -2.8760    -2.2730    -1.7620 hc         1 MUW       0.056700
     68 H172        -3.3250    -1.4450    -3.2240 hc         1 MUW       0.056700
     69 H181        -2.5430     0.6980    -2.3640 hc         1 MUW       0.044200
     70 H182        -2.2480     0.0290    -0.7790 hc         1 MUW       0.044200
     71 H191        -0.4980    -1.4430    -1.6390 hc         1 MUW       0.046700
     72 H192        -0.7460    -0.8570    -3.2790 hc         1 MUW       0.046700
     73 H201        -0.0030     1.3830    -2.6710 h1         1 MUW       0.052700
     74 H202        -0.1220     1.0140    -0.9560 h1         1 MUW       0.052700
     75 HN21         1.6600    -0.8520    -2.0310 hn         1 MUW       0.310500
     76 H37          3.7680    -0.8490    -1.5940 h1         1 MUW       0.054700
     77 HN38         5.3370     0.5630    -2.2600 hn         1 MUW       0.327500
     78 H441         8.1030     3.5640    -1.4430 h1         1 MUW       0.047367
     79 H442         6.6900     4.2130    -0.5920 h1         1 MUW       0.047367
     80 H443         7.7360     3.0170     0.2030 h1         1 MUW       0.047367
     81 H30          3.5910     0.5870     1.0740 hc         1 MUW       0.106700
     82 H25          1.3910     0.5410     1.6590 ha         1 MUW       0.116000
     83 H26         -0.7430    -0.6440     1.9540 ha         1 MUW       0.113250
     84 H27         -0.9780    -2.9920     1.1850 ha         1 MUW       0.113500
     85 H28          0.9560    -4.1380     0.1540 ha         1 MUW       0.113250
     86 H29          3.0870    -2.9600    -0.1320 ha         1 MUW       0.116000
     87 H32          5.3260    -2.1190    -0.8580 ha         1 MUW       0.116000
     88 H33          7.2550    -3.3180     0.0390 ha         1 MUW       0.113250
     89 H34          7.9750    -2.9670     2.3830 ha         1 MUW       0.113500
     90 H35          6.7180    -1.3870     3.8210 ha         1 MUW       0.113250
     91 H36          4.7740    -0.1800     2.9220 ha         1 MUW       0.116000
@<TRIPOS>BOND
     1     1     2 2   
     2     2     3 2   
     3     2     4 1   
     4     2    12 1   
     5     4     5 ar  
     6     4    11 ar  
     7     5     6 ar  
     8     5    46 1   
     9     6     7 ar  
    10     6    47 1   
    11     7     8 1   
    12     7    10 ar  
    13     8     9 1   
    14     8    48 1   
    15     8    49 1   
    16     9    50 1   
    17     9    51 1   
    18    10    11 ar  
    19    10    52 1   
    20    11    53 1   
    21    12    13 1   
    22    12    17 1   
    23    13    14 1   
    24    13    54 1   
    25    13    55 1   
    26    14    15 1   
    27    14    16 1   
    28    14    56 1   
    29    15    57 1   
    30    15    58 1   
    31    15    59 1   
    32    16    60 1   
    33    16    61 1   
    34    16    62 1   
    35    17    18 1   
    36    17    20 1   
    37    17    63 1   
    38    18    19 1   
    39    18    64 1   
    40    18    65 1   
    41    19    66 1   
    42    20    21 1   
    43    20    67 1   
    44    20    68 1   
    45    21    22 1   
    46    21    69 1   
    47    21    70 1   
    48    22    23 1   
    49    22    71 1   
    50    22    72 1   
    51    23    24 1   
    52    23    73 1   
    53    23    74 1   
    54    24    25 1   
    55    24    75 1   
    56    25    26 2   
    57    25    27 1   
    58    27    28 1   
    59    27    33 1   
    60    27    76 1   
    61    28    29 1   
    62    28    77 1   
    63    29    30 1   
    64    29    32 2   
    65    30    31 1   
    66    31    78 1   
    67    31    79 1   
    68    31    80 1   
    69    33    34 1   
    70    33    40 1   
    71    33    81 1   
    72    34    35 ar  
    73    34    39 ar  
    74    35    36 ar  
    75    35    82 1   
    76    36    37 ar  
    77    36    83 1   
    78    37    38 ar  
    79    37    84 1   
    80    38    39 ar  
    81    38    85 1   
    82    39    86 1   
    83    40    41 ar  
    84    40    45 ar  
    85    41    42 ar  
    86    41    87 1   
    87    42    43 ar  
    88    42    88 1   
    89    43    44 ar  
    90    43    89 1   
    91    44    45 ar  
    92    44    90 1   
    93    45    91 1   
@<TRIPOS>SUBSTRUCTURE
     1 MUW         1 TEMP              0 ****  ****    0 ROOT
