@<TRIPOS>MOLECULE
MUX
   24    25     1     0     0
SMALL
No Charge or Current Charge


@<TRIPOS>ATOM
      1 O16         -3.5020     1.2170    -0.8350 o          1 MUX      -0.685200
      2 O15         -4.6310    -0.5900     0.4110 o          1 MUX      -0.685200
      3 O14         -2.7850    -1.1250    -1.1420 o          1 MUX      -0.685200
      4 C17         -0.1010    -0.7490     0.6150 ca         1 MUX      -0.168000
      5 C11         -1.0280     0.2990     0.6590 ca         1 MUX       0.249100
      6 C10         -0.6000     1.6180     0.4440 ca         1 MUX      -0.158000
      7 C02          3.1000     1.1050    -0.2220 cc         1 MUX       0.065600
      8 C03          3.9070    -0.0120    -0.2460 cd         1 MUX      -0.373200
      9 C04          3.4450    -1.3850     0.0050 c          1 MUX       0.680300
     10 O05          4.2050    -2.3420    -0.0280 o          1 MUX      -0.523000
     11 O06          2.1190    -1.5320     0.2780 os         1 MUX      -0.332200
     12 C07          1.2440    -0.4830     0.3220 ca         1 MUX       0.184100
     13 C08          1.6900     0.8330     0.0830 ca         1 MUX      -0.202800
     14 C09          0.7480     1.8860     0.1510 ca         1 MUX      -0.052000
     15 O12         -2.3300     0.0400     0.9800 os         1 MUX      -0.474800
     16 S13         -3.4020    -0.1290    -0.2520 s6         1 MUX       1.486300
     17 H17         -0.4250    -1.7670     0.8020 ha         1 MUX       0.158000
     18 H10         -1.3150     2.4350     0.5040 ha         1 MUX       0.140000
     19 H012         4.7140     2.4650    -0.7040 hc         1 MUX       0.047367
     20 H013         3.1380     2.9410    -1.3540 hc         1 MUX       0.047367
     21 H011         3.4870     3.1410     0.3770 hc         1 MUX       0.047367
     22 H03          4.9660     0.0590    -0.4590 ha         1 MUX       0.195000
     23 H09          1.0480     2.9170    -0.0170 ha         1 MUX       0.102000
     24 C01          3.6390     2.4880    -0.4900 c3         1 MUX      -0.062900
@<TRIPOS>BOND
     1     1    16 1   
     2     2    16 1   
     3     3    16 1   
     4     4     5 ar  
     5     4    12 ar  
     6     4    17 1   
     7     5     6 ar  
     8     5    15 1   
     9     6    14 ar  
    10     6    18 1   
    11     7     8 2   
    12     7    13 1   
    13     7    24 1   
    14     8     9 1   
    15     8    22 1   
    16     9    10 2   
    17     9    11 1   
    18    11    12 1   
    19    12    13 ar  
    20    13    14 ar  
    21    14    23 1   
    22    15    16 1   
    23    19    24 1   
    24    20    24 1   
    25    21    24 1   
@<TRIPOS>SUBSTRUCTURE
     1 MUX         1 TEMP              0 ****  ****    0 ROOT
