@<TRIPOS>MOLECULE
MUX
   24    25     1     0     0
SMALL
bcc


@<TRIPOS>ATOM
      1 O16         -3.3320     1.0200    -1.0690 o          1 MUX      -0.685200
      2 O15         -4.5840    -0.4230     0.4910 o          1 MUX      -0.685200
      3 O14         -2.8210    -1.3760    -0.9480 o          1 MUX      -0.685200
      4 C17         -0.0950    -0.7070     0.5670 ca         1 MUX      -0.186000
      5 C11         -0.9910     0.3440     0.6620 ca         1 MUX       0.249100
      6 C10         -0.5730     1.6610     0.4590 ca         1 MUX      -0.176000
      7 C02          3.0880     1.0760    -0.2090 cc         1 MUX       0.065600
      8 C03          3.8930    -0.0060    -0.2660 cd         1 MUX      -0.323200
      9 C04          3.4040    -1.3470    -0.0510 c          1 MUX       0.755800
     10 O05          4.0620    -2.3570    -0.0890 o          1 MUX      -0.598500
     11 O06          2.0790    -1.4790     0.2160 os         1 MUX      -0.332200
     12 C07          1.2330    -0.4250     0.2870 ca         1 MUX       0.184100
     13 C08          1.6850     0.8790     0.0810 ca         1 MUX      -0.202800
     14 C09          0.7510     1.9170     0.1770 ca         1 MUX      -0.070000
     15 O12         -2.2850     0.0910     0.9940 os         1 MUX      -0.474800
     16 S13         -3.3640    -0.2020    -0.2730 s6         1 MUX       1.486300
     17 H17         -0.4160    -1.7280     0.7290 ha         1 MUX       0.176000
     18 H10         -1.2850     2.4700     0.5370 ha         1 MUX       0.158000
     19 H012         4.6880     2.4320    -0.6300 hc         1 MUX       0.047367
     20 H013         3.1280     2.9120    -1.3040 hc         1 MUX       0.047367
     21 H011         3.4310     3.0950     0.4160 hc         1 MUX       0.047367
     22 H03          4.9490     0.0930    -0.4770 ha         1 MUX       0.145000
     23 H09          1.0680     2.9400     0.0250 ha         1 MUX       0.120000
     24 C01          3.6170     2.4500    -0.4440 c3         1 MUX      -0.062900
@<TRIPOS>BOND
     1     1    16 1   
     2     2    16 1   
     3     3    16 1   
     4     4     5 ar  
     5     4    12 ar  
     6     4    17 1   
     7     5     6 ar  
     8     5    15 1   
     9     6    14 ar  
    10     6    18 1   
    11     7     8 2   
    12     7    13 1   
    13     7    24 1   
    14     8     9 1   
    15     8    22 1   
    16     9    10 2   
    17     9    11 1   
    18    11    12 1   
    19    12    13 ar  
    20    13    14 ar  
    21    14    23 1   
    22    15    16 1   
    23    19    24 1   
    24    20    24 1   
    25    21    24 1   
@<TRIPOS>SUBSTRUCTURE
     1 MUX         1 TEMP              0 ****  ****    0 ROOT
