@<TRIPOS>MOLECULE
MV0
   25    26     1     0     0
SMALL
abcg2


@<TRIPOS>ATOM
      1 C7         -15.8980    20.5080    -4.9910 ca         1 MV0      -0.344600
      2 C8         -14.7170    21.2240    -5.1870 ca         1 MV0       0.243100
      3 C9         -15.8350    22.4340    -3.6510 c5         1 MV0       0.023600
      4 C1         -12.0740    22.7350    -5.6130 c3         1 MV0      -0.188100
      5 C5         -16.1530    19.3240    -5.6940 ca         1 MV0       0.281100
      6 C6         -17.6050    17.5110    -6.1490 c3         1 MV0       0.144900
      7 C4         -15.1850    18.8860    -6.6010 ca         1 MV0      -0.276000
      8 C3         -14.0250    19.6210    -6.7710 ca         1 MV0       0.044000
      9 C2         -13.7310    20.8060    -6.0840 ca         1 MV0      -0.263600
     10 C          -12.4410    21.4850    -6.3630 c          1 MV0       0.603700
     11 O          -11.6860    21.0220    -7.1960 o          1 MV0      -0.542100
     12 C10        -16.6870    21.2270    -4.0070 c          1 MV0       0.584700
     13 O2         -14.6510    22.3260    -4.4360 os         1 MV0      -0.312100
     14 H8         -15.5700    22.4380    -2.5920 h1         1 MV0       0.091700
     15 H9         -16.3450    23.3700    -3.8900 h1         1 MV0       0.091700
     16 H          -11.0890    23.0730    -5.9290 hc         1 MV0       0.064033
     17 H1         -12.7960    23.5310    -5.7980 hc         1 MV0       0.064033
     18 H2         -12.0590    22.5610    -4.5370 hc         1 MV0       0.064033
     19 H5         -18.5810    17.1960    -5.7920 h1         1 MV0       0.051033
     20 H6         -17.6560    17.6850    -7.2250 h1         1 MV0       0.051033
     21 H7         -16.8770    16.7250    -5.9420 h1         1 MV0       0.051033
     22 H4         -15.3160    17.9820    -7.1780 ha         1 MV0       0.130000
     23 H3         -13.2960    19.2530    -7.4810 ha         1 MV0       0.138000
     24 O1         -17.2940    18.7070    -5.4440 os         1 MV0      -0.307100
     25 O3         -17.7740    20.9800    -3.5380 o          1 MV0      -0.490100
@<TRIPOS>BOND
     1     1     2 ar  
     2     1     5 ar  
     3     1    12 1   
     4     2     9 ar  
     5     2    13 1   
     6     3    12 1   
     7     3    13 1   
     8     3    14 1   
     9     3    15 1   
    10     4    10 1   
    11     4    16 1   
    12     4    17 1   
    13     4    18 1   
    14     5     7 ar  
    15     5    24 1   
    16     6    19 1   
    17     6    20 1   
    18     6    21 1   
    19     6    24 1   
    20     7     8 ar  
    21     7    22 1   
    22     8     9 ar  
    23     8    23 1   
    24     9    10 1   
    25    10    11 2   
    26    12    25 2   
@<TRIPOS>SUBSTRUCTURE
     1 MV0         1 TEMP              0 ****  ****    0 ROOT
