@<TRIPOS>MOLECULE
MV0
   25    26     1     0     0
SMALL
No Charge or Current Charge


@<TRIPOS>ATOM
      1 C7         -15.8860    20.5710    -5.0280 ca         1 MV0      -0.344600
      2 C8         -14.7450    21.3080    -5.2650 ca         1 MV0       0.243100
      3 C9         -15.8940    22.5210    -3.7410 c5         1 MV0       0.023600
      4 C1         -11.9080    22.5970    -5.4530 c3         1 MV0      -0.188100
      5 C5         -16.1380    19.3620    -5.6800 ca         1 MV0       0.281100
      6 C6         -17.6150    17.4200    -6.0410 c3         1 MV0       0.144900
      7 C4         -15.1820    18.9050    -6.6100 ca         1 MV0      -0.276000
      8 C3         -14.0140    19.6530    -6.8620 ca         1 MV0       0.044000
      9 C2         -13.7730    20.8700    -6.1830 ca         1 MV0      -0.263600
     10 C          -12.5070    21.6360    -6.4820 c          1 MV0       0.603700
     11 O          -11.9280    21.4690    -7.5490 o          1 MV0      -0.542100
     12 C10        -16.7260    21.2580    -4.0420 c          1 MV0       0.584700
     13 O2         -14.6770    22.4850    -4.5600 os         1 MV0      -0.312100
     14 H8         -15.6250    22.5300    -2.6780 h1         1 MV0       0.091700
     15 H9         -16.4830    23.4110    -3.9890 h1         1 MV0       0.091700
     16 H          -10.8630    22.8410    -5.6750 hc         1 MV0       0.064033
     17 H1         -12.5050    23.5150    -5.4460 hc         1 MV0       0.064033
     18 H2         -12.0350    22.1920    -4.4430 hc         1 MV0       0.064033
     19 H5         -18.5770    17.0410    -5.6760 h1         1 MV0       0.051033
     20 H6         -17.6900    17.5460    -7.1290 h1         1 MV0       0.051033
     21 H7         -16.8480    16.6650    -5.8260 h1         1 MV0       0.051033
     22 H4         -15.3240    17.9740    -7.1510 ha         1 MV0       0.130000
     23 H3         -13.2920    19.2750    -7.5840 ha         1 MV0       0.138000
     24 O1         -17.2960    18.6680    -5.4030 os         1 MV0      -0.307100
     25 O3         -17.8070    20.8980    -3.5930 o          1 MV0      -0.490100
@<TRIPOS>BOND
     1     1     2 ar  
     2     1     5 ar  
     3     1    12 1   
     4     2     9 ar  
     5     2    13 1   
     6     3    12 1   
     7     3    13 1   
     8     3    14 1   
     9     3    15 1   
    10     4    10 1   
    11     4    16 1   
    12     4    17 1   
    13     4    18 1   
    14     5     7 ar  
    15     5    24 1   
    16     6    19 1   
    17     6    20 1   
    18     6    21 1   
    19     6    24 1   
    20     7     8 ar  
    21     7    22 1   
    22     8     9 ar  
    23     8    23 1   
    24     9    10 1   
    25    10    11 2   
    26    12    25 2   
@<TRIPOS>SUBSTRUCTURE
     1 MV0         1 TEMP              0 ****  ****    0 ROOT
