@<TRIPOS>MOLECULE
MV1
   60    59     1     0     0
SMALL
No Charge or Current Charge


@<TRIPOS>ATOM
      1 C            0.0800    -0.6870     1.2040 c          1 MV1       0.600100
      2 N           -3.7370    -0.7840     1.3990 ns         1 MV1      -0.504900
      3 C1          -6.0280     0.9230    -0.5340 c3         1 MV1      -0.065000
      4 C2          -7.5440     1.3070    -0.6270 c3         1 MV1       0.164600
      5 O2          -7.7480     2.5370    -1.3390 oh         1 MV1      -0.659000
      6 C3          -5.4420     0.8000    -1.9750 c3         1 MV1      -0.086100
      7 C4          -5.2400     2.0330     0.2260 c3         1 MV1      -0.086100
      8 C5          -5.9010    -0.4620     0.2130 c3         1 MV1       0.088300
      9 C6          -4.4430    -1.0360     0.2400 c          1 MV1       0.578100
     10 C8          -2.3510    -1.1800     1.6480 c3         1 MV1       0.112000
     11 C9          -1.3570    -0.2480     0.9310 c3         1 MV1      -0.178400
     12 N15          0.7230    -1.2710     0.1360 ns         1 MV1      -0.510900
     13 C16          2.1130    -1.7330     0.1460 c3         1 MV1       0.105000
     14 C17          3.1120    -0.5710    -0.0300 c3         1 MV1      -0.094400
     15 C18          4.5830    -1.0420    -0.0450 c3         1 MV1      -0.073400
     16 C19          5.5870     0.1190    -0.2220 c3         1 MV1      -0.073400
     17 C20          7.0580    -0.3520    -0.2370 c3         1 MV1      -0.075400
     18 C21          8.0610     0.8090    -0.4140 c3         1 MV1      -0.074400
     19 C22          9.5330     0.3380    -0.4300 c3         1 MV1      -0.076400
     20 C23         10.5360     1.4990    -0.6070 c3         1 MV1      -0.074400
     21 C24         12.0040     1.0300    -0.6220 c3         1 MV1      -0.089100
     22 O25          0.6250    -0.5110     2.2830 o          1 MV1      -0.598100
     23 O5          -6.4620    -0.3740     1.5560 oh         1 MV1      -0.667000
     24 O6          -3.9730    -1.7200    -0.6610 o          1 MV1      -0.598100
     25 HN          -4.2440    -0.2720     2.1130 hn         1 MV1       0.315500
     26 H2          -8.0870     0.4950    -1.1290 h1         1 MV1       0.021700
     27 H2A         -7.9610     1.4020     0.3840 h1         1 MV1       0.021700
     28 HO2         -8.7170     2.7040    -1.3500 ho         1 MV1       0.444000
     29 H3          -5.5700     1.7300    -2.5410 hc         1 MV1       0.045367
     30 H3A         -4.3670     0.5880    -1.9570 hc         1 MV1       0.045367
     31 H3B         -5.9390    -0.0030    -2.5330 hc         1 MV1       0.045367
     32 H4          -5.6360     2.1820     1.2380 hc         1 MV1       0.045367
     33 H4A         -4.1760     1.7810     0.3120 hc         1 MV1       0.045367
     34 H4B         -5.3040     2.9940    -0.2990 hc         1 MV1       0.045367
     35 H5          -6.4700    -1.2020    -0.3660 h1         1 MV1       0.096700
     36 H8          -2.1670    -1.1540     2.7310 h1         1 MV1       0.071200
     37 H8A         -2.2050    -2.2140     1.3070 h1         1 MV1       0.071200
     38 H9          -1.4960     0.7690     1.3160 hc         1 MV1       0.058200
     39 H9A         -1.5620    -0.2710    -0.1450 hc         1 MV1       0.058200
     40 HN15         0.1880    -1.3690    -0.7200 hn         1 MV1       0.310500
     41 H16          2.3120    -2.2530     1.0930 h1         1 MV1       0.052700
     42 H16A         2.2460    -2.4550    -0.6700 h1         1 MV1       0.052700
     43 H17          2.8910    -0.0470    -0.9680 hc         1 MV1       0.041700
     44 H17A         2.9740     0.1530     0.7830 hc         1 MV1       0.041700
     45 H18          4.8020    -1.5680     0.8930 hc         1 MV1       0.043200
     46 H18A         4.7210    -1.7650    -0.8580 hc         1 MV1       0.043200
     47 H19          5.3670     0.6450    -1.1590 hc         1 MV1       0.037700
     48 H19A         5.4480     0.8420     0.5920 hc         1 MV1       0.037700
     49 H20          7.2770    -0.8780     0.7000 hc         1 MV1       0.038700
     50 H20A         7.1960    -1.0750    -1.0510 hc         1 MV1       0.038700
     51 H21          7.8420     1.3350    -1.3520 hc         1 MV1       0.036700
     52 H21A         7.9230     1.5320     0.3990 hc         1 MV1       0.036700
     53 H22          9.7520    -0.1880     0.5080 hc         1 MV1       0.037700
     54 H22A         9.6710    -0.3850    -1.2430 hc         1 MV1       0.037700
     55 H23         10.3210     2.0260    -1.5440 hc         1 MV1       0.036700
     56 H23A        10.4020     2.2230     0.2060 hc         1 MV1       0.036700
     57 H24         12.6770     1.8860    -0.7500 hc         1 MV1       0.031700
     58 H24A        12.2610     0.5280     0.3190 hc         1 MV1       0.031700
     59 H24B        12.1790     0.3300    -1.4480 hc         1 MV1       0.031700
     60 HO5         -7.4410    -0.3740     1.4760 ho         1 MV1       0.447000
@<TRIPOS>BOND
     1     1    11 1   
     2     1    12 1   
     3     1    22 2   
     4     2     9 1   
     5     2    10 1   
     6     2    25 1   
     7     3     4 1   
     8     3     6 1   
     9     3     7 1   
    10     3     8 1   
    11     4     5 1   
    12     4    26 1   
    13     4    27 1   
    14     5    28 1   
    15     6    29 1   
    16     6    30 1   
    17     6    31 1   
    18     7    32 1   
    19     7    33 1   
    20     7    34 1   
    21     8     9 1   
    22     8    23 1   
    23     8    35 1   
    24     9    24 2   
    25    10    11 1   
    26    10    36 1   
    27    10    37 1   
    28    11    38 1   
    29    11    39 1   
    30    12    13 1   
    31    12    40 1   
    32    13    14 1   
    33    13    41 1   
    34    13    42 1   
    35    14    15 1   
    36    14    43 1   
    37    14    44 1   
    38    15    16 1   
    39    15    45 1   
    40    15    46 1   
    41    16    17 1   
    42    16    47 1   
    43    16    48 1   
    44    17    18 1   
    45    17    49 1   
    46    17    50 1   
    47    18    19 1   
    48    18    51 1   
    49    18    52 1   
    50    19    20 1   
    51    19    53 1   
    52    19    54 1   
    53    20    21 1   
    54    20    55 1   
    55    20    56 1   
    56    21    57 1   
    57    21    58 1   
    58    21    59 1   
    59    23    60 1   
@<TRIPOS>SUBSTRUCTURE
     1 MV1         1 TEMP              0 ****  ****    0 ROOT
