@<TRIPOS>MOLECULE
MV1
   60    59     1     0     0
SMALL
bcc


@<TRIPOS>ATOM
      1 C            0.0110    -1.2820     0.3520 c          1 MV1       0.667100
      2 N           -3.6950    -0.6360     0.7430 ns         1 MV1      -0.571900
      3 C1          -6.7330     0.5800    -0.4480 c3         1 MV1      -0.065000
      4 C2          -7.8140     1.5250     0.1050 c3         1 MV1       0.141400
      5 O2          -8.5070     2.1300    -0.9620 oh         1 MV1      -0.596800
      6 C3          -7.4050    -0.4650    -1.3420 c3         1 MV1      -0.086100
      7 C4          -5.7070     1.3700    -1.2660 c3         1 MV1      -0.086100
      8 C5          -6.0650    -0.0990     0.7780 c3         1 MV1       0.065100
      9 C6          -4.9200    -1.0420     0.3870 c          1 MV1       0.645100
     10 C8          -2.5020    -1.4250     0.5260 c3         1 MV1       0.112000
     11 C9          -1.2860    -0.5150     0.5210 c3         1 MV1      -0.178400
     12 N15          1.1040    -0.5210     0.2000 ns         1 MV1      -0.577900
     13 C16          2.4350    -1.0810     0.0890 c3         1 MV1       0.105000
     14 C17          3.4920     0.0100     0.0770 c3         1 MV1      -0.094400
     15 C18          4.8950    -0.5740    -0.0270 c3         1 MV1      -0.073400
     16 C19          5.9920     0.4810    -0.0350 c3         1 MV1      -0.073400
     17 C20          7.3880    -0.1230    -0.1190 c3         1 MV1      -0.075400
     18 C21          8.5030     0.9150    -0.1280 c3         1 MV1      -0.074400
     19 C22          9.8930     0.2940    -0.2060 c3         1 MV1      -0.076400
     20 C23         11.0180     1.3210    -0.2120 c3         1 MV1      -0.074400
     21 C24         12.3980     0.6820    -0.2940 c3         1 MV1      -0.089100
     22 O25          0.0580    -2.5050     0.3650 o          1 MV1      -0.598100
     23 O5          -5.6500     0.8240     1.7620 oh         1 MV1      -0.604800
     24 O6          -5.1340    -2.0890    -0.2110 o          1 MV1      -0.598100
     25 HN          -3.6320     0.1400     1.3820 hn         1 MV1       0.315500
     26 H2          -8.4950     0.9430     0.7430 h1         1 MV1       0.021700
     27 H2A         -7.3580     2.2900     0.7420 h1         1 MV1       0.021700
     28 HO2         -9.0430     2.8400    -0.6000 ho         1 MV1       0.405000
     29 H3          -8.0140     0.0260    -2.0990 hc         1 MV1       0.045367
     30 H3A         -6.6800    -1.0880    -1.8590 hc         1 MV1       0.045367
     31 H3B         -8.0590    -1.1230    -0.7640 hc         1 MV1       0.045367
     32 H4          -5.1800     2.1250    -0.6760 hc         1 MV1       0.045367
     33 H4A         -4.9570     0.7140    -1.7110 hc         1 MV1       0.045367
     34 H4B         -6.1980     1.9000    -2.0810 hc         1 MV1       0.045367
     35 H5          -6.8220    -0.7300     1.2570 h1         1 MV1       0.096700
     36 H8          -2.4010    -2.1870     1.3030 h1         1 MV1       0.071200
     37 H8A         -2.5920    -1.9460    -0.4260 h1         1 MV1       0.071200
     38 H9          -1.2320     0.0460     1.4600 hc         1 MV1       0.058200
     39 H9A         -1.3770     0.2310    -0.2730 hc         1 MV1       0.058200
     40 HN15         1.0050     0.4810     0.1950 hn         1 MV1       0.310500
     41 H16          2.6180    -1.7580     0.9290 h1         1 MV1       0.052700
     42 H16A         2.5150    -1.6840    -0.8210 h1         1 MV1       0.052700
     43 H17          3.3140     0.6910    -0.7620 hc         1 MV1       0.041700
     44 H17A         3.4110     0.6090     0.9900 hc         1 MV1       0.041700
     45 H18          5.0600    -1.2610     0.8100 hc         1 MV1       0.043200
     46 H18A         4.9690    -1.1820    -0.9360 hc         1 MV1       0.043200
     47 H19          5.8390     1.1650    -0.8770 hc         1 MV1       0.037700
     48 H19A         5.9150     1.0940     0.8700 hc         1 MV1       0.037700
     49 H20          7.5360    -0.8050     0.7250 hc         1 MV1       0.038700
     50 H20A         7.4610    -0.7420    -1.0210 hc         1 MV1       0.038700
     51 H21          8.3620     1.5960    -0.9750 hc         1 MV1       0.036700
     52 H21A         8.4310     1.5340     0.7730 hc         1 MV1       0.036700
     53 H22         10.0310    -0.3890     0.6400 hc         1 MV1       0.037700
     54 H22A         9.9630    -0.3260    -1.1070 hc         1 MV1       0.037700
     55 H23         10.8810     2.0040    -1.0560 hc         1 MV1       0.036700
     56 H23A        10.9510     1.9380     0.6900 hc         1 MV1       0.036700
     57 H24         13.1900     1.4310    -0.2900 hc         1 MV1       0.031700
     58 H24A        12.5720     0.0110     0.5500 hc         1 MV1       0.031700
     59 H24B        12.5040     0.0930    -1.2070 hc         1 MV1       0.031700
     60 HO5         -5.3560     1.6430     1.3480 ho         1 MV1       0.408000
@<TRIPOS>BOND
     1     1    11 1   
     2     1    12 1   
     3     1    22 2   
     4     2     9 1   
     5     2    10 1   
     6     2    25 1   
     7     3     4 1   
     8     3     6 1   
     9     3     7 1   
    10     3     8 1   
    11     4     5 1   
    12     4    26 1   
    13     4    27 1   
    14     5    28 1   
    15     6    29 1   
    16     6    30 1   
    17     6    31 1   
    18     7    32 1   
    19     7    33 1   
    20     7    34 1   
    21     8     9 1   
    22     8    23 1   
    23     8    35 1   
    24     9    24 2   
    25    10    11 1   
    26    10    36 1   
    27    10    37 1   
    28    11    38 1   
    29    11    39 1   
    30    12    13 1   
    31    12    40 1   
    32    13    14 1   
    33    13    41 1   
    34    13    42 1   
    35    14    15 1   
    36    14    43 1   
    37    14    44 1   
    38    15    16 1   
    39    15    45 1   
    40    15    46 1   
    41    16    17 1   
    42    16    47 1   
    43    16    48 1   
    44    17    18 1   
    45    17    49 1   
    46    17    50 1   
    47    18    19 1   
    48    18    51 1   
    49    18    52 1   
    50    19    20 1   
    51    19    53 1   
    52    19    54 1   
    53    20    21 1   
    54    20    55 1   
    55    20    56 1   
    56    21    57 1   
    57    21    58 1   
    58    21    59 1   
    59    23    60 1   
@<TRIPOS>SUBSTRUCTURE
     1 MV1         1 TEMP              0 ****  ****    0 ROOT
