@<TRIPOS>MOLECULE
MV2
   33    32     1     0     0
SMALL
No Charge or Current Charge


@<TRIPOS>ATOM
      1 C           -4.4510    -0.4010     0.6470 c3         1 MV2       0.166600
      2 N           -1.0510     0.1170    -1.1070 ns         1 MV2      -0.498900
      3 O           -4.8020    -0.4050     2.0340 oh         1 MV2      -0.661000
      4 C1           2.0930     0.1590     0.3140 c3         1 MV2      -0.064000
      5 C2           3.5860     0.5390     0.0260 c3         1 MV2       0.165600
      6 O2           4.2970     0.8880     1.2230 oh         1 MV2      -0.660000
      7 C3           2.0550    -1.0370     1.3150 c3         1 MV2      -0.086600
      8 C4           1.3480     1.3680     0.9580 c3         1 MV2      -0.086600
      9 C5           1.4060    -0.2600    -1.0450 c3         1 MV2       0.089300
     10 O5           1.4530     0.8370    -2.0020 oh         1 MV2      -0.665000
     11 C6          -0.0530    -0.8070    -0.8750 c          1 MV2       0.577100
     12 O6          -0.3070    -1.9800    -0.6260 o          1 MV2      -0.608100
     13 C8          -2.4870    -0.1340    -0.9770 c3         1 MV2       0.104000
     14 C9          -2.9390    -0.1580     0.4970 c3         1 MV2      -0.102400
     15 H           -4.7120    -1.3630     0.1850 h1         1 MV2       0.020200
     16 HA          -5.0010     0.3890     0.1170 h1         1 MV2       0.020200
     17 HN          -0.7310     1.0400    -1.3810 hn         1 MV2       0.323500
     18 HO          -5.7720    -0.5640     2.0830 ho         1 MV2       0.446000
     19 H2           4.0820    -0.3100    -0.4640 h1         1 MV2       0.022200
     20 H2A          3.6210     1.3850    -0.6730 h1         1 MV2       0.022200
     21 HO2          5.2150     1.1130     0.9560 ho         1 MV2       0.445000
     22 H3           2.5780    -0.7960     2.2480 hc         1 MV2       0.045367
     23 H3A          1.0270    -1.2990     1.5900 hc         1 MV2       0.045367
     24 H3B          2.5310    -1.9260     0.8840 hc         1 MV2       0.045367
     25 H4           1.3750     2.2480     0.3040 hc         1 MV2       0.045367
     26 H4A          0.2970     1.1280     1.1600 hc         1 MV2       0.045367
     27 H4B          1.8050     1.6510     1.9130 hc         1 MV2       0.045367
     28 H5           1.9680    -1.1140    -1.4490 h1         1 MV2       0.095700
     29 HO5          2.3660     0.8870    -2.3630 ho         1 MV2       0.448000
     30 H8          -3.0280     0.6560    -1.5130 h1         1 MV2       0.050700
     31 H8A         -2.7280    -1.0930    -1.4550 h1         1 MV2       0.050700
     32 H9          -2.6780     0.7980     0.9680 hc         1 MV2       0.057700
     33 H9A         -2.3930    -0.9440     1.0330 hc         1 MV2       0.057700
@<TRIPOS>BOND
     1     1     3 1   
     2     1    14 1   
     3     1    15 1   
     4     1    16 1   
     5     2    11 1   
     6     2    13 1   
     7     2    17 1   
     8     3    18 1   
     9     4     5 1   
    10     4     7 1   
    11     4     8 1   
    12     4     9 1   
    13     5     6 1   
    14     5    19 1   
    15     5    20 1   
    16     6    21 1   
    17     7    22 1   
    18     7    23 1   
    19     7    24 1   
    20     8    25 1   
    21     8    26 1   
    22     8    27 1   
    23     9    10 1   
    24     9    11 1   
    25     9    28 1   
    26    10    29 1   
    27    11    12 2   
    28    13    14 1   
    29    13    30 1   
    30    13    31 1   
    31    14    32 1   
    32    14    33 1   
@<TRIPOS>SUBSTRUCTURE
     1 MV2         1 TEMP              0 ****  ****    0 ROOT
