@<TRIPOS>MOLECULE
MV2
   33    32     1     0     0
SMALL
abcg2


@<TRIPOS>ATOM
      1 C           -4.8250    -0.1200     0.2830 c3         1 MV2       0.166600
      2 N           -1.0880    -0.0030    -0.2790 ns         1 MV2      -0.498900
      3 O           -5.7830     0.9150     0.2950 oh         1 MV2      -0.661000
      4 C1           2.3720    -0.0610     0.2460 c3         1 MV2      -0.064000
      5 C2           3.5830     0.7270    -0.2820 c3         1 MV2       0.165600
      6 O2           4.6320     0.6690     0.6550 oh         1 MV2      -0.660000
      7 C3           2.7960    -1.5130     0.4830 c3         1 MV2      -0.086600
      8 C4           1.8660     0.5340     1.5630 c3         1 MV2      -0.086600
      9 C5           1.2800     0.0210    -0.8540 c3         1 MV2       0.089300
     10 O5           0.9880     1.3470    -1.2380 oh         1 MV2      -0.665000
     11 C6           0.0000    -0.7470    -0.5000 c          1 MV2       0.577100
     12 O6          -0.0150    -1.9710    -0.4450 o          1 MV2      -0.608100
     13 C8          -2.3820    -0.5880     0.0000 c3         1 MV2       0.104000
     14 C9          -3.4590     0.4850     0.0220 c3         1 MV2      -0.102400
     15 H           -4.8060    -0.6610     1.2390 h1         1 MV2       0.020200
     16 HA          -5.0450    -0.8630    -0.4940 h1         1 MV2       0.020200
     17 HN          -1.0320     0.9900    -0.4340 hn         1 MV2       0.323500
     18 HO          -6.6490     0.5190     0.4240 ho         1 MV2       0.446000
     19 H2           3.8840     0.2910    -1.2470 h1         1 MV2       0.022200
     20 H2A          3.3020     1.7680    -0.4770 h1         1 MV2       0.022200
     21 HO2          5.3450     1.2290     0.3370 ho         1 MV2       0.445000
     22 H3           3.6570    -1.5460     1.1490 hc         1 MV2       0.045367
     23 H3A          2.0040    -2.0980     0.9430 hc         1 MV2       0.045367
     24 H3B          3.0780    -2.0060    -0.4500 hc         1 MV2       0.045367
     25 H4           1.5660     1.5830     1.4790 hc         1 MV2       0.045367
     26 H4A          1.0090    -0.0250     1.9430 hc         1 MV2       0.045367
     27 H4B          2.6420     0.4930     2.3260 hc         1 MV2       0.045367
     28 H5           1.6750    -0.4730    -1.7490 h1         1 MV2       0.095700
     29 HO5          1.0500     1.9320    -0.4760 ho         1 MV2       0.448000
     30 H8          -2.6180    -1.3380    -0.7600 h1         1 MV2       0.050700
     31 H8A         -2.3560    -1.1110     0.9610 h1         1 MV2       0.050700
     32 H9          -3.4710     1.0120    -0.9370 hc         1 MV2       0.057700
     33 H9A         -3.2320     1.2220     0.7980 hc         1 MV2       0.057700
@<TRIPOS>BOND
     1     1     3 1   
     2     1    14 1   
     3     1    15 1   
     4     1    16 1   
     5     2    11 1   
     6     2    13 1   
     7     2    17 1   
     8     3    18 1   
     9     4     5 1   
    10     4     7 1   
    11     4     8 1   
    12     4     9 1   
    13     5     6 1   
    14     5    19 1   
    15     5    20 1   
    16     6    21 1   
    17     7    22 1   
    18     7    23 1   
    19     7    24 1   
    20     8    25 1   
    21     8    26 1   
    22     8    27 1   
    23     9    10 1   
    24     9    11 1   
    25     9    28 1   
    26    10    29 1   
    27    11    12 2   
    28    13    14 1   
    29    13    30 1   
    30    13    31 1   
    31    14    32 1   
    32    14    33 1   
@<TRIPOS>SUBSTRUCTURE
     1 MV2         1 TEMP              0 ****  ****    0 ROOT
