@<TRIPOS>MOLECULE
MV4
   47    51     1     0     0
SMALL
bcc


@<TRIPOS>ATOM
      1 C4          -2.8150     0.0050     0.3060 ca         1 MV4       0.780300
      2 C5          -2.3240     1.3020     0.5770 ca         1 MV4      -0.439600
      3 C6          -3.2540     2.2380     1.0450 ca         1 MV4       0.528200
      4 N1          -4.5160     1.9550     1.2310 nb         1 MV4      -0.779000
      5 N3          -4.1120    -0.2870     0.4910 nb         1 MV4      -0.787000
      6 CAZ          1.4660    -1.9490    -0.5540 c5         1 MV4       0.231800
      7 CAY          1.6640    -3.4530    -0.4380 c5         1 MV4      -0.140400
      8 CAX          0.5210    -4.0200    -1.2810 c5         1 MV4       0.138500
      9 NBA          0.1610    -5.4090    -1.0970 n8         1 MV4      -0.871800
     10 CAW         -0.6320    -3.0920    -0.9130 c5         1 MV4       0.227800
     11 NAV          0.0130    -1.8070    -0.6840 nh         1 MV4      -0.784300
     12 CAC         -0.7220    -0.7370    -0.3220 ca         1 MV4       0.755200
     13 NAD         -2.0140    -0.9730    -0.1240 nb         1 MV4      -0.780000
     14 C2          -4.8920     0.6810     0.9370 ca         1 MV4       0.928900
     15 NAK         -6.1980     0.4140     1.1060 nv         1 MV4      -0.955500
     16 CAA         -0.9690     1.5640     0.3010 ca         1 MV4       0.007000
     17 CAB         -0.1500     0.5840    -0.1770 cp         1 MV4      -0.237300
     18 CAL          1.2050     0.9590    -0.6530 cp         1 MV4      -0.018000
     19 CAM          2.2390     1.3230     0.2560 ca         1 MV4      -0.030000
     20 CAR          2.0730     1.2620     1.6610 ca         1 MV4      -0.120000
     21 CAS          3.0910     1.6140     2.5050 ca         1 MV4      -0.126000
     22 CAT          4.3300     2.0460     1.9910 ca         1 MV4      -0.125000
     23 CAU          4.5260     2.1030     0.6380 ca         1 MV4      -0.118000
     24 CAN          3.4960     1.7390    -0.2610 ca         1 MV4      -0.040000
     25 CAO          3.6980     1.7740    -1.6600 ca         1 MV4      -0.116000
     26 CAP          2.6930     1.4110    -2.5130 ca         1 MV4      -0.128000
     27 CAQ          1.4430     1.0080    -2.0040 ca         1 MV4      -0.115000
     28 H1          -2.9350     3.2520     1.2690 h4         1 MV4       0.018100
     29 H2           1.8380    -1.4170     0.3200 h1         1 MV4       0.058700
     30 H3           1.9830    -1.5570    -1.4320 h1         1 MV4       0.058700
     31 H4           2.6510    -3.7640    -0.7810 hc         1 MV4       0.054200
     32 H5           1.5480    -3.7760     0.6000 hc         1 MV4       0.054200
     33 H6           0.7640    -3.8780    -2.3390 h1         1 MV4       0.069700
     34 H7           0.9280    -6.0010    -1.3860 hn         1 MV4       0.342300
     35 H8           0.0180    -5.5960    -0.1110 hn         1 MV4       0.342300
     36 H10         -1.3880    -3.0210    -1.6950 h1         1 MV4       0.070700
     37 H11         -1.1320    -3.4500    -0.0050 h1         1 MV4       0.070700
     38 H12         -6.7870     1.0870     1.5640 hn         1 MV4       0.445800
     39 H13         -6.5230    -0.5350     1.0470 hn         1 MV4       0.445800
     40 H14         -0.5860     2.5710     0.4280 ha         1 MV4       0.139000
     41 H15          1.1300     0.9250     2.0700 ha         1 MV4       0.139000
     42 H16          2.9460     1.5580     3.5760 ha         1 MV4       0.132000
     43 H17          5.1270     2.3250     2.6680 ha         1 MV4       0.132000
     44 H18          5.4780     2.4280     0.2370 ha         1 MV4       0.131000
     45 H19          4.6580     2.0950    -2.0440 ha         1 MV4       0.133000
     46 H20          2.8480     1.4390    -3.5830 ha         1 MV4       0.134000
     47 H21          0.6540     0.7370    -2.6950 ha         1 MV4       0.141000
@<TRIPOS>BOND
     1     1     2 ar  
     2     1     5 ar  
     3     1    13 ar  
     4     2     3 ar  
     5     2    16 ar  
     6     3     4 ar  
     7     3    28 1   
     8     4    14 ar  
     9     5    14 ar  
    10     6     7 1   
    11     6    11 1   
    12     6    29 1   
    13     6    30 1   
    14     7     8 1   
    15     7    31 1   
    16     7    32 1   
    17     8     9 1   
    18     8    10 1   
    19     8    33 1   
    20     9    34 1   
    21     9    35 1   
    22    10    11 1   
    23    10    36 1   
    24    10    37 1   
    25    11    12 1   
    26    12    13 ar  
    27    12    17 ar  
    28    14    15 1   
    29    15    38 1   
    30    15    39 1   
    31    16    17 ar  
    32    16    40 1   
    33    17    18 1   
    34    18    19 ar  
    35    18    27 ar  
    36    19    20 ar  
    37    19    24 ar  
    38    20    21 ar  
    39    20    41 1   
    40    21    22 ar  
    41    21    42 1   
    42    22    23 ar  
    43    22    43 1   
    44    23    24 ar  
    45    23    44 1   
    46    24    25 ar  
    47    25    26 ar  
    48    25    45 1   
    49    26    27 ar  
    50    26    46 1   
    51    27    47 1   
@<TRIPOS>SUBSTRUCTURE
     1 MV4         1 TEMP              0 ****  ****    0 ROOT
