@<TRIPOS>MOLECULE
MV4
   47    51     1     0     0
SMALL
No Charge or Current Charge


@<TRIPOS>ATOM
      1 C4          -2.8670     0.0290     0.4050 ca         1 MV4       0.189000
      2 C5          -2.4100     1.3660     0.4560 ca         1 MV4      -0.309000
      3 C6          -3.3040     2.3770     0.8550 ca         1 MV4       0.199900
      4 N1          -4.5750     2.0960     1.1870 nb         1 MV4      -0.253000
      5 N3          -4.1490    -0.2290     0.7430 nb         1 MV4      -0.261000
      6 CAZ          1.4740    -1.9790    -0.4920 c5         1 MV4       0.231800
      7 CAY          1.6550    -3.5150    -0.3770 c5         1 MV4      -0.140400
      8 CAX          0.6230    -4.0180    -1.4120 c5         1 MV4       0.138500
      9 NBA          0.4450    -5.4850    -1.3630 n8         1 MV4      -0.982200
     10 CAW         -0.6240    -3.1640    -1.0010 c5         1 MV4       0.227800
     11 NAV          0.0000    -1.8530    -0.6470 nh         1 MV4      -0.784300
     12 CAC         -0.7480    -0.6910    -0.3050 ca         1 MV4       0.426900
     13 NAD         -2.0300    -0.9560     0.0280 nb         1 MV4      -0.254000
     14 C2          -4.9190     0.8060     1.1090 ca         1 MV4       0.402900
     15 NAK         -6.1990     0.5080     1.4430 nv         1 MV4      -1.065900
     16 CAA         -1.0890     1.6720     0.1070 ca         1 MV4       0.025000
     17 CAB         -0.2220     0.6350    -0.2880 cp         1 MV4      -0.172000
     18 CAL          1.1650     0.9860    -0.7100 cp         1 MV4      -0.018000
     19 CAM          2.1820     1.3260     0.2280 ca         1 MV4      -0.030000
     20 CAR          1.9260     1.3250     1.6180 ca         1 MV4      -0.102000
     21 CAS          2.9410     1.6560     2.5320 ca         1 MV4      -0.108000
     22 CAT          4.2230     1.9900     2.0700 ca         1 MV4      -0.107000
     23 CAU          4.4930     1.9900     0.6930 ca         1 MV4      -0.100000
     24 CAN          3.4810     1.6590    -0.2280 ca         1 MV4      -0.040000
     25 CAO          3.7680     1.6570    -1.6060 ca         1 MV4      -0.098000
     26 CAP          2.7700     1.3260    -2.5340 ca         1 MV4      -0.110000
     27 CAQ          1.4820     0.9960    -2.0880 ca         1 MV4      -0.097000
     28 H1          -3.0010     3.4220     0.9090 h4         1 MV4       0.018100
     29 H2           1.8520    -1.4690     0.4060 h1         1 MV4       0.058700
     30 H3           2.0050    -1.5840    -1.3690 h1         1 MV4       0.058700
     31 H4           2.6800    -3.8240    -0.6090 hc         1 MV4       0.054200
     32 H5           1.4230    -3.8640     0.6360 hc         1 MV4       0.054200
     33 H6           0.9390    -3.7480    -2.4320 h1         1 MV4       0.069700
     34 H7           1.3410    -5.9390    -1.5750 hn         1 MV4       0.397500
     35 H8           0.2610    -5.7700    -0.3940 hn         1 MV4       0.397500
     36 H10         -1.3410    -3.0810    -1.8290 h1         1 MV4       0.070700
     37 H11         -1.1390    -3.6050    -0.1360 h1         1 MV4       0.070700
     38 H12         -6.7420     1.2090     1.9410 hn         1 MV4       0.501000
     39 H13         -6.4400    -0.4650     1.6200 hn         1 MV4       0.501000
     40 H14         -0.7330     2.7010     0.1290 ha         1 MV4       0.121000
     41 H15          0.9430     1.0640     2.0020 ha         1 MV4       0.121000
     42 H16          2.7320     1.6520     3.6000 ha         1 MV4       0.114000
     43 H17          5.0080     2.2450     2.7790 ha         1 MV4       0.114000
     44 H18          5.4900     2.2470     0.3430 ha         1 MV4       0.113000
     45 H19          4.7650     1.9120    -1.9580 ha         1 MV4       0.115000
     46 H20          2.9950     1.3250    -3.5980 ha         1 MV4       0.116000
     47 H21          0.7130     0.7390    -2.8140 ha         1 MV4       0.123000
@<TRIPOS>BOND
     1     1     2 ar  
     2     1     5 ar  
     3     1    13 ar  
     4     2     3 ar  
     5     2    16 ar  
     6     3     4 ar  
     7     3    28 1   
     8     4    14 ar  
     9     5    14 ar  
    10     6     7 1   
    11     6    11 1   
    12     6    29 1   
    13     6    30 1   
    14     7     8 1   
    15     7    31 1   
    16     7    32 1   
    17     8     9 1   
    18     8    10 1   
    19     8    33 1   
    20     9    34 1   
    21     9    35 1   
    22    10    11 1   
    23    10    36 1   
    24    10    37 1   
    25    11    12 1   
    26    12    13 ar  
    27    12    17 ar  
    28    14    15 1   
    29    15    38 1   
    30    15    39 1   
    31    16    17 ar  
    32    16    40 1   
    33    17    18 1   
    34    18    19 ar  
    35    18    27 ar  
    36    19    20 ar  
    37    19    24 ar  
    38    20    21 ar  
    39    20    41 1   
    40    21    22 ar  
    41    21    42 1   
    42    22    23 ar  
    43    22    43 1   
    44    23    24 ar  
    45    23    44 1   
    46    24    25 ar  
    47    25    26 ar  
    48    25    45 1   
    49    26    27 ar  
    50    26    46 1   
    51    27    47 1   
@<TRIPOS>SUBSTRUCTURE
     1 MV4         1 TEMP              0 ****  ****    0 ROOT
