@<TRIPOS>MOLECULE
MV5
   26    25     1     0     0
SMALL
abcg2


@<TRIPOS>ATOM
      1 C8          -3.5200     1.4180   -11.9300 c          1 MV5       0.533900
      2 C10         -2.2160     2.1870   -11.9400 c3         1 MV5       0.060500
      3 O9          -3.7180     0.4090   -12.5570 o          1 MV5      -0.509100
      4 C16         -2.5070     3.6180   -12.3790 c3         1 MV5       0.042600
      5 C19         -1.4200     6.5590   -10.1110 c3         1 MV5       0.046600
      6 N22         -3.5890     5.4880    -9.6880 n8         1 MV5      -0.991200
      7 N12         -1.1570     1.6270   -12.7380 n8         1 MV5      -0.989200
      8 S17         -0.9380     4.5550   -12.3350 ss         1 MV5      -0.189000
      9 S18         -1.5780     6.4590   -11.9190 ss         1 MV5      -0.220000
     10 C20         -2.1930     5.4970    -9.3340 c3         1 MV5       0.085500
     11 C68         -1.9330     5.7580    -7.8420 c          1 MV5       0.561100
     12 N69         -0.8240     5.1910    -7.3520 nt         1 MV5      -0.602000
     13 O70         -2.6820     6.4610    -7.1800 o          1 MV5      -0.605100
     14 H1          -4.3050     1.8530   -11.2840 h4         1 MV5      -0.006800
     15 H2          -1.8870     2.2230   -10.8940 h1         1 MV5       0.077700
     16 H3          -3.2210     4.1090   -11.7160 h1         1 MV5       0.087700
     17 H4          -2.9040     3.6390   -13.3960 h1         1 MV5       0.087700
     18 H5          -0.3620     6.5280    -9.8490 h1         1 MV5       0.083700
     19 H6          -1.7880     7.5600    -9.8660 h1         1 MV5       0.083700
     20 H8          -4.0230     6.3660    -9.4280 hn         1 MV5       0.415500
     21 H10         -0.8820     0.7210   -12.3800 hn         1 MV5       0.412500
     22 H11         -1.4720     1.4770   -13.6890 hn         1 MV5       0.412500
     23 H13         -1.7700     4.5200    -9.5940 h1         1 MV5       0.069700
     24 H14         -0.5450     5.3450    -6.3960 hn         1 MV5       0.317500
     25 H15         -0.2390     4.5940    -7.9100 hn         1 MV5       0.317500
     26 H7          -4.0710     4.7670    -9.1670 hn         1 MV5       0.415500
@<TRIPOS>BOND
     1     1     2 1   
     2     1     3 2   
     3     1    14 1   
     4     2     4 1   
     5     2     7 1   
     6     2    15 1   
     7     4     8 1   
     8     4    16 1   
     9     4    17 1   
    10     5     9 1   
    11     5    10 1   
    12     5    18 1   
    13     5    19 1   
    14     6    10 1   
    15     6    20 1   
    16     6    26 1   
    17     7    21 1   
    18     7    22 1   
    19     8     9 1   
    20    10    11 1   
    21    10    23 1   
    22    11    12 1   
    23    11    13 2   
    24    12    24 1   
    25    12    25 1   
@<TRIPOS>SUBSTRUCTURE
     1 MV5         1 TEMP              0 ****  ****    0 ROOT
