@<TRIPOS>MOLECULE
MV5
   26    25     1     0     0
SMALL
No Charge or Current Charge


@<TRIPOS>ATOM
      1 C8          -3.3940     1.0330   -11.9660 c          1 MV5       0.533900
      2 C10         -2.0520     1.8050   -12.1920 c3         1 MV5       0.060500
      3 O9          -3.8840     0.2550   -12.7800 o          1 MV5      -0.509100
      4 C16         -2.3130     3.3340   -12.1360 c3         1 MV5       0.042600
      5 C19         -1.3480     6.6590   -10.0490 c3         1 MV5       0.046600
      6 N22         -3.7590     5.9820    -9.6550 n8         1 MV5      -0.991200
      7 N12         -1.2770     1.4170   -13.4320 n8         1 MV5      -0.989200
      8 S17         -0.7410     4.3080   -12.0240 ss         1 MV5      -0.189000
      9 S18         -1.3960     6.2930   -11.8690 ss         1 MV5      -0.220000
     10 C20         -2.3290     5.7850    -9.2160 c3         1 MV5       0.085500
     11 C68         -2.0710     5.9970    -7.6800 c          1 MV5       0.561100
     12 N69         -0.8880     5.5530    -7.1910 nt         1 MV5      -0.602000
     13 O70         -2.8770     6.5220    -6.9270 o          1 MV5      -0.605100
     14 H1          -3.8960     1.2310   -10.9930 h4         1 MV5      -0.006800
     15 H2          -1.4300     1.5560   -11.3200 h1         1 MV5       0.077700
     16 H3          -2.9240     3.5700   -11.2560 h1         1 MV5       0.087700
     17 H4          -2.8690     3.6540   -13.0270 h1         1 MV5       0.087700
     18 H5          -0.3190     6.4990    -9.7010 h1         1 MV5       0.083700
     19 H6          -1.5880     7.7190    -9.8990 h1         1 MV5       0.083700
     20 H8          -4.0570     6.9320    -9.3980 hn         1 MV5       0.415500
     21 H10         -1.0970     0.4040   -13.4190 hn         1 MV5       0.412500
     22 H11         -1.8790     1.5280   -14.2580 hn         1 MV5       0.412500
     23 H13         -2.0710     4.7340    -9.4070 h1         1 MV5       0.069700
     24 H14         -0.6900     5.6660    -6.2080 hn         1 MV5       0.317500
     25 H15         -0.2210     5.0980    -7.7970 hn         1 MV5       0.317500
     26 H7          -4.3720     5.3950    -9.0750 hn         1 MV5       0.415500
@<TRIPOS>BOND
     1     1     2 1   
     2     1     3 2   
     3     1    14 1   
     4     2     4 1   
     5     2     7 1   
     6     2    15 1   
     7     4     8 1   
     8     4    16 1   
     9     4    17 1   
    10     5     9 1   
    11     5    10 1   
    12     5    18 1   
    13     5    19 1   
    14     6    10 1   
    15     6    20 1   
    16     6    26 1   
    17     7    21 1   
    18     7    22 1   
    19     8     9 1   
    20    10    11 1   
    21    10    23 1   
    22    11    12 1   
    23    11    13 2   
    24    12    24 1   
    25    12    25 1   
@<TRIPOS>SUBSTRUCTURE
     1 MV5         1 TEMP              0 ****  ****    0 ROOT
