@<TRIPOS>MOLECULE
MV6
   20    19     1     0     0
SMALL
No Charge or Current Charge


@<TRIPOS>ATOM
      1 CA         201.7160   152.3690   170.6520 c3         1 MV6       0.125500
      2 C          202.0110   153.0820   169.3010 cs         1 MV6       0.463500
      3 CB         201.1220   150.9480   170.4650 c3         1 MV6      -0.068400
      4 CG         201.0900   150.0690   171.7370 c3         1 MV6       0.059600
      5 SD         202.7990   149.5920   172.2800 ss         1 MV6      -0.436000
      6 CE         203.0080   150.6930   173.7530 c3         1 MV6       0.036900
      7 N1         200.8400   153.2060   171.5340 n8         1 MV6      -0.983200
      8 S          201.1830   152.8530   167.8640 s          1 MV6      -0.468400
      9 HA         202.6930   152.2670   171.1450 h1         1 MV6       0.053700
     10 HXT        203.0180   154.4200   168.5230 ho         1 MV6       0.498000
     11 HB2        200.1010   151.0370   170.0750 hc         1 MV6       0.068700
     12 HB3        201.6990   150.4160   169.6980 hc         1 MV6       0.068700
     13 HG2        200.5600   150.5810   172.5510 h1         1 MV6       0.073700
     14 HG3        200.5370   149.1480   171.5110 h1         1 MV6       0.073700
     15 HE1        203.9880   150.5120   174.2130 h1         1 MV6       0.059033
     16 HE2        202.9460   151.7460   173.4510 h1         1 MV6       0.059033
     17 HE3        202.2240   150.4830   174.4920 h1         1 MV6       0.059033
     18 H          200.8070   152.7970   172.4750 hn         1 MV6       0.407000
     19 H2         201.2910   154.1170   171.6850 hn         1 MV6       0.407000
     20 OXT        202.9570   154.0200   169.4140 oh         1 MV6      -0.556100
@<TRIPOS>BOND
     1     1     2 1   
     2     1     3 1   
     3     1     7 1   
     4     1     9 1   
     5     2     8 2   
     6     2    20 1   
     7     3     4 1   
     8     3    11 1   
     9     3    12 1   
    10     4     5 1   
    11     4    13 1   
    12     4    14 1   
    13     5     6 1   
    14     6    15 1   
    15     6    16 1   
    16     6    17 1   
    17     7    18 1   
    18     7    19 1   
    19    10    20 1   
@<TRIPOS>SUBSTRUCTURE
     1 MV6         1 TEMP              0 ****  ****    0 ROOT
