@<TRIPOS>MOLECULE
MV6
   20    19     1     0     0
SMALL
abcg2


@<TRIPOS>ATOM
      1 CA         201.7370   152.4240   170.7800 c3         1 MV6       0.125500
      2 C          201.8670   153.2220   169.5050 cs         1 MV6       0.463500
      3 CB         201.3550   150.9860   170.4020 c3         1 MV6      -0.068400
      4 CG         201.3180   150.0100   171.5710 c3         1 MV6       0.059600
      5 SD         202.9080   149.7620   172.4160 ss         1 MV6      -0.436000
      6 CE         202.8440   150.9790   173.7530 c3         1 MV6       0.036900
      7 N1         200.7410   152.9960   171.6550 n8         1 MV6      -0.983200
      8 S          200.7750   154.2930   168.9340 s          1 MV6      -0.468400
      9 HA         202.7490   152.3940   171.2150 h1         1 MV6       0.053700
     10 HXT        203.0380   153.4090   168.0390 ho         1 MV6       0.498000
     11 HB2        200.3660   151.0030   169.9330 hc         1 MV6       0.068700
     12 HB3        202.0570   150.6050   169.6600 hc         1 MV6       0.068700
     13 HG2        200.5630   150.2710   172.3160 h1         1 MV6       0.073700
     14 HG3        201.0350   149.0290   171.1880 h1         1 MV6       0.073700
     15 HE1        203.6690   150.7520   174.4260 h1         1 MV6       0.059033
     16 HE2        202.9640   152.0010   173.3990 h1         1 MV6       0.059033
     17 HE3        201.9140   150.8930   174.3130 h1         1 MV6       0.059033
     18 H          200.6990   152.4680   172.5170 hn         1 MV6       0.407000
     19 H2         201.0080   153.9360   171.9200 hn         1 MV6       0.407000
     20 OXT        202.9830   152.9240   168.8770 oh         1 MV6      -0.556100
@<TRIPOS>BOND
     1     1     2 1   
     2     1     3 1   
     3     1     7 1   
     4     1     9 1   
     5     2     8 2   
     6     2    20 1   
     7     3     4 1   
     8     3    11 1   
     9     3    12 1   
    10     4     5 1   
    11     4    13 1   
    12     4    14 1   
    13     5     6 1   
    14     6    15 1   
    15     6    16 1   
    16     6    17 1   
    17     7    18 1   
    18     7    19 1   
    19    10    20 1   
@<TRIPOS>SUBSTRUCTURE
     1 MV6         1 TEMP              0 ****  ****    0 ROOT
