@<TRIPOS>MOLECULE
MV7
  118   121     1     0     0
SMALL
abcg2


@<TRIPOS>ATOM
      1 O10         -5.2680    -3.0510     1.4870 o          1 MV7      -0.592100
      2 C37         -4.4960    -2.1070     1.4220 c          1 MV7       0.619700
      3 N5          -3.3280    -2.0340     2.0830 ns         1 MV7      -0.506900
      4 C38         -2.6710    -3.1470     2.7500 c3         1 MV7       0.161000
      5 C40         -1.2980    -3.3240     2.1310 ca         1 MV7      -0.114300
      6 C43         -1.0570    -4.3800     1.2570 ca         1 MV7      -0.111500
      7 C44          0.1810    -4.5310     0.6450 ca         1 MV7      -0.112500
      8 C45          1.1970    -3.6200     0.9000 ca         1 MV7      -0.108000
      9 C42          0.9660    -2.5560     1.7620 ca         1 MV7      -0.112500
     10 C41         -0.2740    -2.4090     2.3720 ca         1 MV7      -0.111500
     11 C39         -2.6390    -2.9480     4.2600 c3         1 MV7      -0.101100
     12 C36         -4.7750    -0.9380     0.5310 ca         1 MV7      -0.145600
     13 C34         -6.0820    -0.5150     0.3220 ca         1 MV7      -0.058000
     14 C31         -6.3480     0.5030    -0.5860 ca         1 MV7       0.253000
     15 N4          -7.6780     0.9200    -0.8350 nh         1 MV7      -0.771300
     16 S           -8.1210     2.4590    -0.3380 s6         1 MV7       1.195100
     17 O9          -6.9000     3.1930    -0.0550 o          1 MV7      -0.531500
     18 C33         -8.8790     3.1340    -1.7920 c3         1 MV7      -0.345100
     19 O8          -9.1370     2.3610     0.7010 o          1 MV7      -0.531500
     20 C32         -8.7380    -0.0860    -0.8020 c3         1 MV7       0.191100
     21 C30         -5.3080     1.0740    -1.3150 ca         1 MV7      -0.019000
     22 C35         -3.7400    -0.3340    -0.1670 ca         1 MV7      -0.075000
     23 C29         -4.0010     0.6740    -1.0880 ca         1 MV7      -0.146600
     24 C28         -2.8910     1.2400    -1.9150 c          1 MV7       0.619700
     25 O7          -3.0560     1.5480    -3.0830 o          1 MV7      -0.587100
     26 N3          -1.7080     1.3250    -1.2680 ns         1 MV7      -0.511900
     27 C20         -0.4490     1.6620    -1.8900 c3         1 MV7       0.082700
     28 C21          0.0750     3.0100    -1.4260 c3         1 MV7       0.148600
     29 O6           0.3020     2.9500    -0.0320 os         1 MV7      -0.335100
     30 C22          0.9070     3.9710     0.5860 ca         1 MV7       0.202100
     31 C27          1.1500     3.7930     1.9500 ca         1 MV7      -0.242000
     32 C26          1.7690     4.8080     2.6430 ca         1 MV7       0.238000
     33 F2           2.0000     4.6400     3.9500 f          1 MV7      -0.169500
     34 C25          2.1670     5.9980     2.0570 ca         1 MV7      -0.239000
     35 C24          1.9060     6.1270     0.7090 ca         1 MV7       0.238000
     36 F1           2.2680     7.2610     0.0980 f          1 MV7      -0.169500
     37 C23          1.2850     5.1510    -0.0500 ca         1 MV7      -0.242000
     38 C19          0.5590     0.5130    -1.6810 c3         1 MV7       0.162300
     39 O5           0.6280     0.1040    -0.3310 oh         1 MV7      -0.653000
     40 C18          0.2640    -0.6500    -2.6250 c3         1 MV7      -0.149400
     41 C14          1.0750    -1.9230    -2.3460 c3         1 MV7       0.099300
     42 O3           0.7450    -2.9590    -3.2270 os         1 MV7      -0.417000
     43 C15         -0.5050    -3.5620    -2.9710 c3         1 MV7       0.153600
     44 C16         -0.5120    -4.9660    -3.5170 c3         1 MV7       0.155600
     45 O4           0.3990    -5.7590    -2.8020 os         1 MV7      -0.449000
     46 C17          0.4170    -7.0920    -3.2450 c3         1 MV7       0.144900
     47 C13          2.5760    -1.6770    -2.5070 c          1 MV7       0.609100
     48 O2           3.1400    -1.8290    -3.5760 o          1 MV7      -0.579100
     49 N2           3.1840    -1.2720    -1.3790 ns         1 MV7      -0.498900
     50 C9           4.5930    -1.0050    -1.2590 c3         1 MV7       0.035700
     51 C10          4.9340     0.5030    -1.2760 c3         1 MV7      -0.068700
     52 C12          4.5660     1.1290    -2.6150 c3         1 MV7      -0.092100
     53 C11          4.2970     1.2640    -0.1180 c3         1 MV7      -0.092100
     54 C1           5.0970    -1.6420     0.0350 c          1 MV7       0.594100
     55 O1           4.3420    -1.9070     0.9590 o          1 MV7      -0.612100
     56 N1           6.4240    -1.8320     0.0740 ns         1 MV7      -0.500900
     57 C2           7.1470    -2.3120     1.2270 c3         1 MV7       0.142300
     58 C3           8.1870    -1.3330     1.7160 ca         1 MV7      -0.111300
     59 C4           7.9370     0.0360     1.7440 ca         1 MV7      -0.100500
     60 C5           8.8890     0.9190     2.2320 ca         1 MV7      -0.109000
     61 C8           9.4110    -1.8000     2.1840 ca         1 MV7      -0.100500
     62 C7          10.3650    -0.9200     2.6770 ca         1 MV7      -0.109000
     63 C6          10.1080     0.4440     2.7010 ca         1 MV7      -0.105000
     64 HN5         -2.8410    -1.1510     2.0940 hn         1 MV7       0.312500
     65 H38         -3.2640    -4.0350     2.5320 h1         1 MV7       0.084700
     66 H43         -1.8470    -5.0930     1.0500 ha         1 MV7       0.112500
     67 H44          0.3420    -5.3420    -0.0530 ha         1 MV7       0.132000
     68 H45          2.1660    -3.7330     0.4290 ha         1 MV7       0.129000
     69 H42          1.7550    -1.8430     1.9640 ha         1 MV7       0.132000
     70 H41         -0.4280    -1.5750     3.0470 ha         1 MV7       0.112500
     71 H39         -3.6540    -2.8830     4.6500 hc         1 MV7       0.045367
     72 H39A        -2.1400    -3.7880     4.7440 hc         1 MV7       0.045367
     73 H39B        -2.1120    -2.0350     4.5400 hc         1 MV7       0.045367
     74 H34         -6.8880    -0.9840     0.8710 ha         1 MV7       0.142000
     75 H33         -9.7330     2.5280    -2.0840 h1         1 MV7       0.105700
     76 H33A        -9.2150     4.1390    -1.5460 h1         1 MV7       0.105700
     77 H33B        -8.1460     3.1660    -2.5930 h1         1 MV7       0.105700
     78 H32         -9.0120    -0.3980     0.2060 h1         1 MV7       0.054367
     79 H32A        -9.6280     0.2900    -1.3020 h1         1 MV7       0.054367
     80 H32B        -8.3960    -0.9530    -1.3620 h1         1 MV7       0.054367
     81 H30         -5.5190     1.8210    -2.0690 ha         1 MV7       0.143000
     82 H35         -2.7310    -0.7050    -0.0490 ha         1 MV7       0.117000
     83 HN3         -1.7210     1.2880    -0.2600 hn         1 MV7       0.329500
     84 H20         -0.6210     1.7670    -2.9630 h1         1 MV7       0.096700
     85 H21          1.0010     3.2340    -1.9660 h1         1 MV7       0.052200
     86 H21A        -0.6520     3.7930    -1.6660 h1         1 MV7       0.052200
     87 H27          0.8580     2.8760     2.4450 ha         1 MV7       0.145500
     88 H25          2.6540     6.7800     2.6230 ha         1 MV7       0.153000
     89 H23          1.1070     5.3300    -1.1020 ha         1 MV7       0.145500
     90 H19          1.5480     0.9150    -1.9150 h1         1 MV7       0.083700
     91 HO5         -0.1030    -0.4890    -0.1300 ho         1 MV7       0.443000
     92 H18         -0.8010    -0.9030    -2.5660 hc         1 MV7       0.067200
     93 H18A         0.4460    -0.3230    -3.6520 hc         1 MV7       0.067200
     94 H14          0.8830    -2.2560    -1.3170 h1         1 MV7       0.050700
     95 H15         -0.7120    -3.5890    -1.8920 h1         1 MV7       0.035700
     96 H15A        -1.3240    -3.0070    -3.4430 h1         1 MV7       0.035700
     97 H16         -1.5360    -5.3550    -3.4270 h1         1 MV7       0.033700
     98 H16A        -0.2710    -4.9560    -4.5900 h1         1 MV7       0.033700
     99 H17         -0.5540    -7.5850    -3.1130 h1         1 MV7       0.029700
    100 H17A         0.6930    -7.1720    -4.3030 h1         1 MV7       0.029700
    101 H17B         1.1580    -7.6310    -2.6560 h1         1 MV7       0.029700
    102 HN2          2.6300    -1.1940    -0.5380 hn         1 MV7       0.344500
    103 H9           5.0970    -1.4730    -2.1080 h1         1 MV7       0.087700
    104 H10          6.0210     0.5730    -1.1720 hc         1 MV7       0.046700
    105 H12          3.4860     1.1460    -2.7730 hc         1 MV7       0.040367
    106 H12A         4.9140     2.1620    -2.6580 hc         1 MV7       0.040367
    107 H12B         5.0130     0.5880    -3.4490 hc         1 MV7       0.040367
    108 H11          4.6510     0.9220     0.8560 hc         1 MV7       0.040367
    109 H11A         4.5280     2.3270    -0.1930 hc         1 MV7       0.040367
    110 H11B         3.2090     1.1720    -0.1190 hc         1 MV7       0.040367
    111 HN1          6.9630    -1.6340    -0.7550 hn         1 MV7       0.318500
    112 H2           6.4210    -2.5090     2.0160 h1         1 MV7       0.067200
    113 H2A          7.6230    -3.2670     0.9920 h1         1 MV7       0.067200
    114 H4           6.9930     0.4220     1.3770 ha         1 MV7       0.113000
    115 H5           8.6790     1.9810     2.2450 ha         1 MV7       0.114000
    116 H8           9.6240    -2.8630     2.1610 ha         1 MV7       0.113000
    117 H7          11.3120    -1.3000     3.0370 ha         1 MV7       0.114000
    118 H6          10.8520     1.1330     3.0790 ha         1 MV7       0.114000
@<TRIPOS>BOND
     1     1     2 2   
     2     2     3 1   
     3     2    12 1   
     4     3     4 1   
     5     3    64 1   
     6     4     5 1   
     7     4    11 1   
     8     4    65 1   
     9     5     6 ar  
    10     5    10 ar  
    11     6     7 ar  
    12     6    66 1   
    13     7     8 ar  
    14     7    67 1   
    15     8     9 ar  
    16     8    68 1   
    17     9    10 ar  
    18     9    69 1   
    19    10    70 1   
    20    11    71 1   
    21    11    72 1   
    22    11    73 1   
    23    12    13 ar  
    24    12    22 ar  
    25    13    14 ar  
    26    13    74 1   
    27    14    15 1   
    28    14    21 ar  
    29    15    16 1   
    30    15    20 1   
    31    16    17 2   
    32    16    18 1   
    33    16    19 2   
    34    18    75 1   
    35    18    76 1   
    36    18    77 1   
    37    20    78 1   
    38    20    79 1   
    39    20    80 1   
    40    21    23 ar  
    41    21    81 1   
    42    22    23 ar  
    43    22    82 1   
    44    23    24 1   
    45    24    25 2   
    46    24    26 1   
    47    26    27 1   
    48    26    83 1   
    49    27    28 1   
    50    27    38 1   
    51    27    84 1   
    52    28    29 1   
    53    28    85 1   
    54    28    86 1   
    55    29    30 1   
    56    30    31 ar  
    57    30    37 ar  
    58    31    32 ar  
    59    31    87 1   
    60    32    33 1   
    61    32    34 ar  
    62    34    35 ar  
    63    34    88 1   
    64    35    36 1   
    65    35    37 ar  
    66    37    89 1   
    67    38    39 1   
    68    38    40 1   
    69    38    90 1   
    70    39    91 1   
    71    40    41 1   
    72    40    92 1   
    73    40    93 1   
    74    41    42 1   
    75    41    47 1   
    76    41    94 1   
    77    42    43 1   
    78    43    44 1   
    79    43    95 1   
    80    43    96 1   
    81    44    45 1   
    82    44    97 1   
    83    44    98 1   
    84    45    46 1   
    85    46    99 1   
    86    46   100 1   
    87    46   101 1   
    88    47    48 2   
    89    47    49 1   
    90    49    50 1   
    91    49   102 1   
    92    50    51 1   
    93    50    54 1   
    94    50   103 1   
    95    51    52 1   
    96    51    53 1   
    97    51   104 1   
    98    52   105 1   
    99    52   106 1   
   100    52   107 1   
   101    53   108 1   
   102    53   109 1   
   103    53   110 1   
   104    54    55 2   
   105    54    56 1   
   106    56    57 1   
   107    56   111 1   
   108    57    58 1   
   109    57   112 1   
   110    57   113 1   
   111    58    59 ar  
   112    58    61 ar  
   113    59    60 ar  
   114    59   114 1   
   115    60    63 ar  
   116    60   115 1   
   117    61    62 ar  
   118    61   116 1   
   119    62    63 ar  
   120    62   117 1   
   121    63   118 1   
@<TRIPOS>SUBSTRUCTURE
     1 MV7         1 TEMP              0 ****  ****    0 ROOT
