@<TRIPOS>MOLECULE
MV7
  118   121     1     0     0
SMALL
No Charge or Current Charge


@<TRIPOS>ATOM
      1 O10         -5.7410    -2.6660     1.7250 o          1 MV7      -0.592100
      2 C37         -4.7980    -2.0830     1.2080 c          1 MV7       0.619700
      3 N5          -3.5040    -2.5340     1.3550 ns         1 MV7      -0.506900
      4 C38         -3.0910    -3.7180     2.1020 c3         1 MV7       0.161000
      5 C40         -1.6950    -4.1370     1.6430 ca         1 MV7      -0.114300
      6 C43         -1.5040    -5.3770     0.9990 ca         1 MV7      -0.111500
      7 C44         -0.2250    -5.7630     0.5620 ca         1 MV7      -0.112500
      8 C45          0.8750    -4.9120     0.7610 ca         1 MV7      -0.108000
      9 C42          0.6940    -3.6730     1.3980 ca         1 MV7      -0.112500
     10 C41         -0.5840    -3.2860     1.8350 ca         1 MV7      -0.111500
     11 C39         -3.1530    -3.4750     3.6250 c3         1 MV7      -0.101100
     12 C36         -4.9810    -0.8380     0.3610 ca         1 MV7      -0.145600
     13 C34         -6.2720    -0.2850     0.2040 ca         1 MV7      -0.058000
     14 C31         -6.4850     0.8590    -0.5860 ca         1 MV7       0.253000
     15 N4          -7.7810     1.3890    -0.7380 nh         1 MV7      -0.771300
     16 S           -8.1450     2.8700     0.0820 s6         1 MV7       1.195100
     17 O9          -7.2370     3.8850    -0.4590 o          1 MV7      -0.531500
     18 C33         -9.8140     3.2990    -0.3900 c3         1 MV7      -0.345100
     19 O8          -8.1310     2.5600     1.5140 o          1 MV7      -0.531500
     20 C32         -8.9100     0.5020    -1.0870 c3         1 MV7       0.191100
     21 C30         -5.3920     1.4560    -1.2390 ca         1 MV7      -0.019000
     22 C35         -3.8950    -0.2140    -0.2970 ca         1 MV7      -0.075000
     23 C29         -4.0870     0.9370    -1.1000 ca         1 MV7      -0.146600
     24 C28         -2.9390     1.5950    -1.8340 c          1 MV7       0.619700
     25 O7          -3.1060     2.4350    -2.7060 o          1 MV7      -0.587100
     26 N3          -1.6830     1.1590    -1.4840 ns         1 MV7      -0.511900
     27 C20         -0.4220     1.5090    -2.1570 c3         1 MV7       0.082700
     28 C21          0.0660     2.9350    -1.7830 c3         1 MV7       0.148600
     29 O6           0.4110     2.9560    -0.3820 os         1 MV7      -0.335100
     30 C22          1.0250     4.0380     0.2080 ca         1 MV7       0.202100
     31 C27          1.4280     3.9080     1.5440 ca         1 MV7      -0.242000
     32 C26          2.0730     4.9710     2.1900 ca         1 MV7       0.238000
     33 F2           2.4620     4.8370     3.4760 f          1 MV7      -0.169500
     34 C25          2.3190     6.1690     1.5100 ca         1 MV7      -0.239000
     35 C24          1.9140     6.2990     0.1760 ca         1 MV7       0.238000
     36 F1           2.1480     7.4530    -0.4840 f          1 MV7      -0.169500
     37 C23          1.2690     5.2420    -0.4810 ca         1 MV7      -0.242000
     38 C19          0.6500     0.4180    -1.8520 c3         1 MV7       0.162300
     39 O5           0.7150     0.2000    -0.4330 oh         1 MV7      -0.653000
     40 C18          0.3580    -0.9410    -2.5370 c3         1 MV7      -0.149400
     41 C14          1.2900    -2.1140    -2.0990 c3         1 MV7       0.099300
     42 O3           1.0000    -3.2690    -2.9330 os         1 MV7      -0.417000
     43 C15         -0.2810    -3.9050    -2.7220 c3         1 MV7       0.153600
     44 C16         -0.3080    -5.2470    -3.4890 c3         1 MV7       0.155600
     45 O4           0.5630    -6.1880    -2.8280 os         1 MV7      -0.449000
     46 C17          0.6160    -7.4850    -3.4430 c3         1 MV7       0.144900
     47 C13          2.8090    -1.7470    -2.1500 c          1 MV7       0.609100
     48 O2           3.5610    -2.0790    -3.0600 o          1 MV7      -0.579100
     49 N2           3.2770    -1.0930    -1.0280 ns         1 MV7      -0.498900
     50 C9           4.6830    -0.7020    -0.7670 c3         1 MV7       0.035700
     51 C10          4.9780     0.7770    -1.1810 c3         1 MV7      -0.068700
     52 C12          4.8310     1.0110    -2.7030 c3         1 MV7      -0.092100
     53 C11          4.1570     1.8140    -0.3720 c3         1 MV7      -0.092100
     54 C1           5.0460    -0.9880     0.7230 c          1 MV7       0.594100
     55 O1           4.2220    -1.3290     1.5630 o          1 MV7      -0.612100
     56 N1           6.3760    -0.8320     1.0470 ns         1 MV7      -0.500900
     57 C2           6.9250    -1.0250     2.3850 c3         1 MV7       0.142300
     58 C3           8.3910    -0.6240     2.4310 ca         1 MV7      -0.111300
     59 C4           8.7500     0.7220     2.6430 ca         1 MV7      -0.100500
     60 C5          10.1040     1.0970     2.6800 ca         1 MV7      -0.109000
     61 C8           9.4000    -1.5900     2.2520 ca         1 MV7      -0.100500
     62 C7          10.7540    -1.2150     2.2890 ca         1 MV7      -0.109000
     63 C6          11.1070     0.1290     2.5030 ca         1 MV7      -0.105000
     64 HN5         -2.7810    -2.0050     0.8910 hn         1 MV7       0.312500
     65 H38         -3.7940    -4.5280     1.8640 h1         1 MV7       0.084700
     66 H43         -2.3480    -6.0440     0.8330 ha         1 MV7       0.112500
     67 H44         -0.0870    -6.7200     0.0630 ha         1 MV7       0.132000
     68 H45          1.8630    -5.2100     0.4170 ha         1 MV7       0.129000
     69 H42          1.5450    -3.0110     1.5500 ha         1 MV7       0.132000
     70 H41         -0.7090    -2.3210     2.3210 ha         1 MV7       0.112500
     71 H39         -4.1790    -3.2590     3.9440 hc         1 MV7       0.045367
     72 H39A        -2.8120    -4.3660     4.1650 hc         1 MV7       0.045367
     73 H39B        -2.5190    -2.6310     3.9180 hc         1 MV7       0.045367
     74 H34         -7.1200    -0.7420     0.7060 ha         1 MV7       0.142000
     75 H33        -10.4840     2.5200    -0.0140 h1         1 MV7       0.105700
     76 H33A       -10.0410     4.2650     0.0700 h1         1 MV7       0.105700
     77 H33B        -9.8410     3.3660    -1.4820 h1         1 MV7       0.105700
     78 H32         -9.5210     0.2770    -0.2020 h1         1 MV7       0.054367
     79 H32A        -9.5450     0.9630    -1.8540 h1         1 MV7       0.054367
     80 H32B        -8.5410    -0.4470    -1.4980 h1         1 MV7       0.054367
     81 H30         -5.5660     2.3270    -1.8650 ha         1 MV7       0.143000
     82 H35         -2.9020    -0.6400    -0.2070 ha         1 MV7       0.117000
     83 HN3         -1.6270     0.4960    -0.7230 hn         1 MV7       0.329500
     84 H20         -0.6040     1.5060    -3.2410 h1         1 MV7       0.096700
     85 H21          0.9440     3.1770    -2.3960 h1         1 MV7       0.052200
     86 H21A        -0.7200     3.6690    -2.0010 h1         1 MV7       0.052200
     87 H27          1.2450     2.9820     2.0800 ha         1 MV7       0.145500
     88 H25          2.8190     6.9910     2.0130 ha         1 MV7       0.153000
     89 H23          0.9680     5.3790    -1.5140 ha         1 MV7       0.145500
     90 H19          1.6160     0.7870    -2.2260 h1         1 MV7       0.083700
     91 HO5          0.6510     1.0950    -0.0240 ho         1 MV7       0.443000
     92 H18         -0.6810    -1.2160    -2.3270 hc         1 MV7       0.067200
     93 H18A         0.4370    -0.8080    -3.6230 hc         1 MV7       0.067200
     94 H14          1.0710    -2.3570    -1.0520 h1         1 MV7       0.050700
     95 H15         -0.4620    -4.0900    -1.6560 h1         1 MV7       0.035700
     96 H15A        -1.0940    -3.2740    -3.1010 h1         1 MV7       0.035700
     97 H16         -1.3390    -5.6260    -3.4990 h1         1 MV7       0.033700
     98 H16A         0.0040    -5.0820    -4.5290 h1         1 MV7       0.033700
     99 H17         -0.3780    -7.9520    -3.4540 h1         1 MV7       0.029700
    100 H17A         0.9790    -7.4130    -4.4760 h1         1 MV7       0.029700
    101 H17B         1.2960    -8.1430    -2.8870 h1         1 MV7       0.029700
    102 HN2          2.5740    -0.8490    -0.3340 hn         1 MV7       0.344500
    103 H9           5.3390    -1.3560    -1.3570 h1         1 MV7       0.087700
    104 H10          6.0330     0.9710    -0.9520 hc         1 MV7       0.046700
    105 H12          3.7900     0.9000    -3.0260 hc         1 MV7       0.040367
    106 H12A         5.1610     2.0220    -2.9710 hc         1 MV7       0.040367
    107 H12B         5.4440     0.2970    -3.2650 hc         1 MV7       0.040367
    108 H11          4.3230     1.6990     0.7050 hc         1 MV7       0.040367
    109 H11A         4.4510     2.8350    -0.6450 hc         1 MV7       0.040367
    110 H11B         3.0850     1.7110    -0.5660 hc         1 MV7       0.040367
    111 HN1          7.0060    -0.5510     0.3060 hn         1 MV7       0.318500
    112 H2           6.3520    -0.4200     3.1010 h1         1 MV7       0.067200
    113 H2A          6.8150    -2.0810     2.6690 h1         1 MV7       0.067200
    114 H4           7.9790     1.4780     2.7780 ha         1 MV7       0.113000
    115 H5          10.3760     2.1370     2.8440 ha         1 MV7       0.114000
    116 H8           9.1360    -2.6320     2.0830 ha         1 MV7       0.113000
    117 H7          11.5300    -1.9650     2.1500 ha         1 MV7       0.114000
    118 H6          12.1550     0.4190     2.5310 ha         1 MV7       0.114000
@<TRIPOS>BOND
     1     1     2 2   
     2     2     3 1   
     3     2    12 1   
     4     3     4 1   
     5     3    64 1   
     6     4     5 1   
     7     4    11 1   
     8     4    65 1   
     9     5     6 ar  
    10     5    10 ar  
    11     6     7 ar  
    12     6    66 1   
    13     7     8 ar  
    14     7    67 1   
    15     8     9 ar  
    16     8    68 1   
    17     9    10 ar  
    18     9    69 1   
    19    10    70 1   
    20    11    71 1   
    21    11    72 1   
    22    11    73 1   
    23    12    13 ar  
    24    12    22 ar  
    25    13    14 ar  
    26    13    74 1   
    27    14    15 1   
    28    14    21 ar  
    29    15    16 1   
    30    15    20 1   
    31    16    17 2   
    32    16    18 1   
    33    16    19 2   
    34    18    75 1   
    35    18    76 1   
    36    18    77 1   
    37    20    78 1   
    38    20    79 1   
    39    20    80 1   
    40    21    23 ar  
    41    21    81 1   
    42    22    23 ar  
    43    22    82 1   
    44    23    24 1   
    45    24    25 2   
    46    24    26 1   
    47    26    27 1   
    48    26    83 1   
    49    27    28 1   
    50    27    38 1   
    51    27    84 1   
    52    28    29 1   
    53    28    85 1   
    54    28    86 1   
    55    29    30 1   
    56    30    31 ar  
    57    30    37 ar  
    58    31    32 ar  
    59    31    87 1   
    60    32    33 1   
    61    32    34 ar  
    62    34    35 ar  
    63    34    88 1   
    64    35    36 1   
    65    35    37 ar  
    66    37    89 1   
    67    38    39 1   
    68    38    40 1   
    69    38    90 1   
    70    39    91 1   
    71    40    41 1   
    72    40    92 1   
    73    40    93 1   
    74    41    42 1   
    75    41    47 1   
    76    41    94 1   
    77    42    43 1   
    78    43    44 1   
    79    43    95 1   
    80    43    96 1   
    81    44    45 1   
    82    44    97 1   
    83    44    98 1   
    84    45    46 1   
    85    46    99 1   
    86    46   100 1   
    87    46   101 1   
    88    47    48 2   
    89    47    49 1   
    90    49    50 1   
    91    49   102 1   
    92    50    51 1   
    93    50    54 1   
    94    50   103 1   
    95    51    52 1   
    96    51    53 1   
    97    51   104 1   
    98    52   105 1   
    99    52   106 1   
   100    52   107 1   
   101    53   108 1   
   102    53   109 1   
   103    53   110 1   
   104    54    55 2   
   105    54    56 1   
   106    56    57 1   
   107    56   111 1   
   108    57    58 1   
   109    57   112 1   
   110    57   113 1   
   111    58    59 ar  
   112    58    61 ar  
   113    59    60 ar  
   114    59   114 1   
   115    60    63 ar  
   116    60   115 1   
   117    61    62 ar  
   118    61   116 1   
   119    62    63 ar  
   120    62   117 1   
   121    63   118 1   
@<TRIPOS>SUBSTRUCTURE
     1 MV7         1 TEMP              0 ****  ****    0 ROOT
