@<TRIPOS>MOLECULE
MV8
   48    50     1     0     0
SMALL
No Charge or Current Charge


@<TRIPOS>ATOM
      1 N1          52.8000   110.8710    73.2230 n3         1 MV8      -0.721600
      2 C2          52.7140   112.1750    73.9510 c6         1 MV8       0.162300
      3 O2          54.5140   105.6380    73.0630 o          1 MV8      -0.522000
      4 N3          52.3740   106.0650    73.9320 n          1 MV8      -0.258400
      5 C4          52.3420   108.3280    73.4110 c5         1 MV8       0.157300
      6 N4          51.6250    99.6720    75.1320 nv         1 MV8      -1.076200
      7 C5          54.4520   111.9870    71.6350 c6         1 MV8       0.166300
      8 C6          53.0260   113.3990    73.0320 c6         1 MV8       0.166300
      9 C1          52.4610   109.7170    74.1050 c3         1 MV8       0.170800
     10 C10         51.9130   104.7350    74.2450 ca         1 MV8       0.022000
     11 C11         56.0970   114.5500    70.8320 c          1 MV8       0.722000
     12 C12         52.3680   103.6080    73.5330 ca         1 MV8      -0.157000
     13 C13         51.1980   104.5170    75.4400 ca         1 MV8      -0.157000
     14 C14         52.0280   102.3060    73.9400 ca         1 MV8      -0.053000
     15 C15         50.8550   103.2180    75.8530 ca         1 MV8      -0.053000
     16 C16         51.2720   102.0890    75.1150 ca         1 MV8      -0.179900
     17 C17         50.8720   100.7110    75.5470 ce         1 MV8       0.668800
     18 C3          54.1320   110.7570    72.5470 c6         1 MV8       0.162300
     19 C7          51.5860   107.2610    74.2510 c5         1 MV8       0.059000
     20 C9          53.6010   106.4000    73.3450 c          1 MV8       0.704100
     21 N2          54.3600   113.2870    72.3690 n3         1 MV8      -0.676600
     22 N5          49.9320   100.4830    76.3670 n2         1 MV8      -0.835100
     23 O1          53.6500   107.7490    73.1630 os         1 MV8      -0.399100
     24 O3          57.0350   114.9940    71.4830 o          1 MV8      -0.727500
     25 O4          56.2090   114.1760    69.6700 o          1 MV8      -0.727500
     26 H2          51.7090   112.3060    74.3760 h1         1 MV8       0.031700
     27 H3          53.4220   112.1820    74.7940 h1         1 MV8       0.031700
     28 H4          51.8350   108.4580    72.4460 h1         1 MV8       0.089700
     29 H5          52.5300    99.9280    74.7540 hn         1 MV8       0.458500
     30 H6          51.6270    98.8550    75.7310 hn         1 MV8       0.458500
     31 H7          55.4610   111.8540    71.2180 h1         1 MV8       0.034700
     32 H8          53.7510   111.9830    70.7870 h1         1 MV8       0.034700
     33 H9          52.9800   114.3140    73.6400 h1         1 MV8       0.034700
     34 H10         52.2330   113.4780    72.2730 h1         1 MV8       0.034700
     35 H11         51.4900   109.9190    74.5780 h1         1 MV8       0.034700
     36 H12         53.1950   109.6350    74.9180 h1         1 MV8       0.034700
     37 H13         52.9560   103.7280    72.6270 ha         1 MV8       0.130500
     38 H14         50.8930   105.3560    76.0600 ha         1 MV8       0.130500
     39 H15         52.3550   101.4680    73.3270 ha         1 MV8       0.124500
     40 H16         50.2780   103.0920    76.7680 ha         1 MV8       0.124500
     41 H17         54.1700   109.8590    71.9160 h1         1 MV8       0.031700
     42 H18         54.9290   110.6600    73.2990 h1         1 MV8       0.031700
     43 H19         51.6260   107.4840    75.3250 h1         1 MV8       0.061700
     44 H20         50.5360   107.1610    73.9450 h1         1 MV8       0.061700
     45 H21         54.5740   115.3860    72.1120 h1         1 MV8       0.011700
     46 H22         53.9340   114.5480    70.7070 h1         1 MV8       0.011700
     47 H24         49.7350    99.4770    76.3500 hn         1 MV8       0.364400
     48 C8          54.6810   114.4740    71.5090 c3         1 MV8       0.018800
@<TRIPOS>BOND
     1     1     2 1   
     2     1     9 1   
     3     1    18 1   
     4     2     8 1   
     5     2    26 1   
     6     2    27 1   
     7     3    20 2   
     8     4    10 1   
     9     4    19 1   
    10     4    20 1   
    11     5     9 1   
    12     5    19 1   
    13     5    23 1   
    14     5    28 1   
    15     6    17 1   
    16     6    29 1   
    17     6    30 1   
    18     7    18 1   
    19     7    21 1   
    20     7    31 1   
    21     7    32 1   
    22     8    21 1   
    23     8    33 1   
    24     8    34 1   
    25     9    35 1   
    26     9    36 1   
    27    10    12 ar  
    28    10    13 ar  
    29    11    24 1   
    30    11    25 1   
    31    11    48 1   
    32    12    14 ar  
    33    12    37 1   
    34    13    15 ar  
    35    13    38 1   
    36    14    16 ar  
    37    14    39 1   
    38    15    16 ar  
    39    15    40 1   
    40    16    17 1   
    41    17    22 2   
    42    18    41 1   
    43    18    42 1   
    44    19    43 1   
    45    19    44 1   
    46    20    23 1   
    47    21    48 1   
    48    22    47 1   
    49    45    48 1   
    50    46    48 1   
@<TRIPOS>SUBSTRUCTURE
     1 MV8         1 TEMP              0 ****  ****    0 ROOT
