@<TRIPOS>MOLECULE
MV8
   48    50     1     0     0
SMALL
abcg2


@<TRIPOS>ATOM
      1 N1          52.9230   110.7430    73.1670 n3         1 MV8      -0.721600
      2 C2          52.7590   111.9760    73.9190 c6         1 MV8       0.162300
      3 O2          54.4400   105.6000    72.6710 o          1 MV8      -0.522000
      4 N3          52.4290   106.0400    73.7330 n          1 MV8      -0.258400
      5 C4          52.4140   108.3000    73.2800 c5         1 MV8       0.157300
      6 N4          51.6230    99.8680    75.3290 nv         1 MV8      -1.076200
      7 C5          54.4220   111.9520    71.6560 c6         1 MV8       0.166300
      8 C6          52.9530   113.1870    73.0300 c6         1 MV8       0.166300
      9 C1          52.6770   109.5990    74.0140 c3         1 MV8       0.170800
     10 C10         52.0640   104.7690    74.1830 ca         1 MV8       0.022000
     11 C11         55.9160   114.6240    71.1250 c          1 MV8       0.722000
     12 C12         52.4690   103.6030    73.5300 ca         1 MV8      -0.157000
     13 C13         51.2310   104.6540    75.2980 ca         1 MV8      -0.157000
     14 C14         52.0720   102.3650    74.0080 ca         1 MV8      -0.053000
     15 C15         50.8330   103.4120    75.7560 ca         1 MV8      -0.053000
     16 C16         51.2570   102.2430    75.1310 ca         1 MV8      -0.179900
     17 C17         50.8140   100.9220    75.6500 ce         1 MV8       0.668800
     18 C3          54.2300   110.7270    72.5290 c6         1 MV8       0.162300
     19 C7          51.7730   107.2490    74.1840 c5         1 MV8       0.059000
     20 C9          53.5740   106.3440    73.0490 c          1 MV8       0.704100
     21 N2          54.2650   113.1740    72.4160 n3         1 MV8      -0.676600
     22 N5          49.7140   100.8560    76.2980 n2         1 MV8      -0.835100
     23 O1          53.6250   107.6630    72.8420 os         1 MV8      -0.399100
     24 O3          56.8500   114.0160    71.6790 o          1 MV8      -0.727500
     25 O4          56.0040   115.4880    70.2300 o          1 MV8      -0.727500
     26 H2          51.7520   112.0020    74.3430 h1         1 MV8       0.031700
     27 H3          53.4670   112.0310    74.7630 h1         1 MV8       0.031700
     28 H4          51.7960   108.4900    72.3990 h1         1 MV8       0.089700
     29 H5          52.6070   100.0390    75.2010 hn         1 MV8       0.458500
     30 H6          51.4250    98.9860    75.7750 hn         1 MV8       0.458500
     31 H7          55.4220   111.9200    71.2250 h1         1 MV8       0.034700
     32 H8          53.7040   111.9070    70.8160 h1         1 MV8       0.034700
     33 H9          52.8480   114.0890    73.6370 h1         1 MV8       0.034700
     34 H10         52.1460   113.2130    72.2750 h1         1 MV8       0.034700
     35 H11         51.7690   109.8060    74.5880 h1         1 MV8       0.034700
     36 H12         53.4760   109.4320    74.7580 h1         1 MV8       0.034700
     37 H13         53.0780   103.6440    72.6410 ha         1 MV8       0.130500
     38 H14         50.8880   105.5330    75.8280 ha         1 MV8       0.130500
     39 H15         52.3940   101.4870    73.4640 ha         1 MV8       0.124500
     40 H16         50.1910   103.3490    76.6240 ha         1 MV8       0.124500
     41 H17         54.3240   109.8430    71.8980 h1         1 MV8       0.031700
     42 H18         55.0390   110.6790    73.2780 h1         1 MV8       0.031700
     43 H19         51.9800   107.4440    75.2420 h1         1 MV8       0.061700
     44 H20         50.6940   107.1980    74.0460 h1         1 MV8       0.061700
     45 H21         54.1650   115.2230    72.1880 h1         1 MV8       0.011700
     46 H22         53.8070   114.3490    70.7150 h1         1 MV8       0.011700
     47 H24         49.5410    99.9100    76.6290 hn         1 MV8       0.364400
     48 C8          54.4690   114.3500    71.5990 c3         1 MV8       0.018800
@<TRIPOS>BOND
     1     1     2 1   
     2     1     9 1   
     3     1    18 1   
     4     2     8 1   
     5     2    26 1   
     6     2    27 1   
     7     3    20 2   
     8     4    10 1   
     9     4    19 1   
    10     4    20 1   
    11     5     9 1   
    12     5    19 1   
    13     5    23 1   
    14     5    28 1   
    15     6    17 1   
    16     6    29 1   
    17     6    30 1   
    18     7    18 1   
    19     7    21 1   
    20     7    31 1   
    21     7    32 1   
    22     8    21 1   
    23     8    33 1   
    24     8    34 1   
    25     9    35 1   
    26     9    36 1   
    27    10    12 ar  
    28    10    13 ar  
    29    11    24 1   
    30    11    25 1   
    31    11    48 1   
    32    12    14 ar  
    33    12    37 1   
    34    13    15 ar  
    35    13    38 1   
    36    14    16 ar  
    37    14    39 1   
    38    15    16 ar  
    39    15    40 1   
    40    16    17 1   
    41    17    22 2   
    42    18    41 1   
    43    18    42 1   
    44    19    43 1   
    45    19    44 1   
    46    20    23 1   
    47    21    48 1   
    48    22    47 1   
    49    45    48 1   
    50    46    48 1   
@<TRIPOS>SUBSTRUCTURE
     1 MV8         1 TEMP              0 ****  ****    0 ROOT
