@<TRIPOS>MOLECULE
MV9
   21    20     1     0     0
SMALL
bcc


@<TRIPOS>ATOM
      1 N            1.6300     0.5050    -0.1610 n7         1 MV9      -0.821200
      2 CA           0.3470     0.0860     0.3740 c3         1 MV9       0.039500
      3 C           -0.7540     1.1250     0.0510 c          1 MV9       0.925600
      4 O           -0.4050     2.1690    -0.5390 o          1 MV9      -0.838800
      5 CB           0.0160    -1.3340    -0.1320 c3         1 MV9      -0.022700
      6 CG1         -1.0050    -2.0750     0.7240 c3         1 MV9      -0.074100
      7 CG2         -0.3790    -1.3390    -1.6040 c3         1 MV9      -0.074100
      8 CN           2.7580     0.1260     0.6570 c3         1 MV9       0.166100
      9 OXT         -1.9090     0.8530     0.4330 o          1 MV9      -0.838800
     10 H            1.6030     1.5080    -0.2830 hn         1 MV9       0.389800
     11 HA           0.3910     0.0310     1.4780 h1         1 MV9       0.007700
     12 HB           0.9520    -1.8990    -0.0510 hc         1 MV9       0.003700
     13 HG12        -1.9910    -1.6190     0.6590 hc         1 MV9       0.023200
     14 HG11        -1.0890    -3.1160     0.4060 hc         1 MV9       0.023200
     15 HG13        -0.7090    -2.0780     1.7750 hc         1 MV9       0.023200
     16 HG21         0.3480    -0.7880    -2.2040 hc         1 MV9       0.023200
     17 HG22        -0.4260    -2.3580    -1.9930 hc         1 MV9       0.023200
     18 HG23        -1.3600    -0.8850    -1.7560 hc         1 MV9       0.023200
     19 HN2          2.6760     0.4390     1.7100 h1         1 MV9      -0.000300
     20 HN1          2.8920    -0.9580     0.6580 h1         1 MV9      -0.000300
     21 HN3          3.6740     0.5590     0.2530 h1         1 MV9      -0.000300
@<TRIPOS>BOND
     1     1     2 1   
     2     1     8 1   
     3     1    10 1   
     4     2     3 1   
     5     2     5 1   
     6     2    11 1   
     7     3     4 1   
     8     3     9 1   
     9     5     6 1   
    10     5     7 1   
    11     5    12 1   
    12     6    13 1   
    13     6    14 1   
    14     6    15 1   
    15     7    16 1   
    16     7    17 1   
    17     7    18 1   
    18     8    19 1   
    19     8    20 1   
    20     8    21 1   
@<TRIPOS>SUBSTRUCTURE
     1 MV9         1 TEMP              0 ****  ****    0 ROOT
