@<TRIPOS>MOLECULE
MV9
   21    20     1     0     0
SMALL
No Charge or Current Charge


@<TRIPOS>ATOM
      1 N            1.6010     0.6760    -0.0740 n7         1 MV9      -0.876400
      2 CA           0.2940     0.1160     0.4440 c3         1 MV9       0.039500
      3 C           -0.9650     1.0640     0.2270 c          1 MV9       0.715000
      4 O           -1.0610     1.7010    -0.8160 o          1 MV9      -0.733500
      5 CB           0.0320    -1.3360    -0.0890 c3         1 MV9      -0.022700
      6 CG1         -1.1740    -2.0060     0.6110 c3         1 MV9      -0.074100
      7 CG2         -0.1130    -1.4180    -1.6300 c3         1 MV9      -0.074100
      8 CN           2.8340     0.1070     0.5010 c3         1 MV9       0.166100
      9 OXT         -1.7050     1.2640     1.1830 o          1 MV9      -0.733500
     10 H            1.6060     1.6860     0.1250 hn         1 MV9       0.445000
     11 HA           0.3960     0.0300     1.5360 h1         1 MV9       0.007700
     12 HB           0.9020    -1.9480     0.1760 hc         1 MV9       0.003700
     13 HG12        -2.1140    -1.5080     0.3460 hc         1 MV9       0.023200
     14 HG11        -1.2540    -3.0590     0.3160 hc         1 MV9       0.023200
     15 HG13        -1.0580    -1.9690     1.7010 hc         1 MV9       0.023200
     16 HG21         0.7680    -1.0030    -2.1330 hc         1 MV9       0.023200
     17 HG22        -0.2170    -2.4620    -1.9500 hc         1 MV9       0.023200
     18 HG23        -0.9970    -0.8700    -1.9740 hc         1 MV9       0.023200
     19 HN2          2.8460     0.2330     1.5920 h1         1 MV9      -0.000300
     20 HN1          2.9230    -0.9620     0.2730 h1         1 MV9      -0.000300
     21 HN3          3.7140     0.6160     0.0880 h1         1 MV9      -0.000300
@<TRIPOS>BOND
     1     1     2 1   
     2     1     8 1   
     3     1    10 1   
     4     2     3 1   
     5     2     5 1   
     6     2    11 1   
     7     3     4 1   
     8     3     9 1   
     9     5     6 1   
    10     5     7 1   
    11     5    12 1   
    12     6    13 1   
    13     6    14 1   
    14     6    15 1   
    15     7    16 1   
    16     7    17 1   
    17     7    18 1   
    18     8    19 1   
    19     8    20 1   
    20     8    21 1   
@<TRIPOS>SUBSTRUCTURE
     1 MV9         1 TEMP              0 ****  ****    0 ROOT
