@<TRIPOS>MOLECULE
MVA
   21    20     1     0     0
SMALL
No Charge or Current Charge


@<TRIPOS>ATOM
      1 N           -0.1390    -1.7120    -0.1630 n7         1 MVA      -0.827400
      2 CN          -1.2300    -2.4230     0.5280 c3         1 MVA       0.159100
      3 CA           0.1040    -0.2980     0.2920 c3         1 MVA       0.035500
      4 CB           1.4090     0.2610    -0.3660 c3         1 MVA      -0.047700
      5 CG1          1.7120     1.7150     0.0800 c3         1 MVA      -0.080100
      6 CG2          2.6470    -0.6370    -0.1000 c3         1 MVA      -0.080100
      7 C           -1.1360     0.6770     0.0920 c          1 MVA       0.717000
      8 O           -1.4750     0.9900    -1.0440 o          1 MVA      -0.729000
      9 OXT         -1.7370     1.0590     1.0900 o          1 MVA      -0.729000
     10 H            0.7250    -2.2420    -0.0120 hn         1 MVA       0.359000
     11 HN1         -1.0350    -2.4800     1.6080 h1         1 MVA       0.015033
     12 HN2         -2.1910    -1.9120     0.3770 h1         1 MVA       0.015033
     13 HN3         -1.3240    -3.4470     0.1430 h1         1 MVA       0.015033
     14 HA           0.2970    -0.3270     1.3740 h1         1 MVA       0.002700
     15 HB           1.2510     0.2840    -1.4520 hc         1 MVA       0.067700
     16 HG11         2.6360     2.0780    -0.3860 hc         1 MVA       0.017867
     17 HG12         0.9080     2.4000    -0.2120 hc         1 MVA       0.017867
     18 HG13         1.8340     1.7700     1.1680 hc         1 MVA       0.017867
     19 HG21         2.5210    -1.6360    -0.5330 hc         1 MVA       0.017867
     20 HG22         3.5460    -0.1980    -0.5490 hc         1 MVA       0.017867
     21 HG23         2.8240    -0.7470     0.9770 hc         1 MVA       0.017867
@<TRIPOS>BOND
     1     1     2 1   
     2     1     3 1   
     3     1    10 1   
     4     2    11 1   
     5     2    12 1   
     6     2    13 1   
     7     3     4 1   
     8     3     7 1   
     9     3    14 1   
    10     4     5 1   
    11     4     6 1   
    12     4    15 1   
    13     5    16 1   
    14     5    17 1   
    15     5    18 1   
    16     6    19 1   
    17     6    20 1   
    18     6    21 1   
    19     7     8 1   
    20     7     9 1   
@<TRIPOS>SUBSTRUCTURE
     1 MVA         1 TEMP              0 ****  ****    0 ROOT
