@<TRIPOS>MOLECULE
MVA
   21    20     1     0     0
SMALL
abcg2


@<TRIPOS>ATOM
      1 N           -0.1020    -1.6890    -0.1390 n7         1 MVA      -0.827400
      2 CN          -1.2370    -2.3200     0.5020 c3         1 MVA       0.159100
      3 CA           0.1520    -0.3390     0.3410 c3         1 MVA       0.035500
      4 CB           1.3890     0.2550    -0.3500 c3         1 MVA      -0.047700
      5 CG1          1.6770     1.6710     0.1440 c3         1 MVA      -0.080100
      6 CG2          2.6350    -0.6090    -0.1610 c3         1 MVA      -0.080100
      7 C           -1.0760     0.5650     0.0780 c          1 MVA       0.717000
      8 O           -1.5160     0.5840    -1.0890 o          1 MVA      -0.729000
      9 OXT         -1.5150     1.2190     1.0460 o          1 MVA      -0.729000
     10 H            0.7120    -2.2570     0.0570 hn         1 MVA       0.359000
     11 HN1         -1.2300    -2.2540     1.6000 h1         1 MVA       0.015033
     12 HN2         -2.1720    -1.8770     0.1530 h1         1 MVA       0.015033
     13 HN3         -1.2640    -3.3770     0.2370 h1         1 MVA       0.015033
     14 HA           0.3420    -0.3350     1.4300 h1         1 MVA       0.002700
     15 HB           1.1660     0.3030    -1.4210 hc         1 MVA       0.067700
     16 HG11         2.5520     2.0810    -0.3610 hc         1 MVA       0.017867
     17 HG12         0.8470     2.3540    -0.0350 hc         1 MVA       0.017867
     18 HG13         1.8840     1.6790     1.2170 hc         1 MVA       0.017867
     19 HG21         2.5490    -1.5870    -0.6380 hc         1 MVA       0.017867
     20 HG22         3.5080    -0.1230    -0.5990 hc         1 MVA       0.017867
     21 HG23         2.8460    -0.7690     0.9000 hc         1 MVA       0.017867
@<TRIPOS>BOND
     1     1     2 1   
     2     1     3 1   
     3     1    10 1   
     4     2    11 1   
     5     2    12 1   
     6     2    13 1   
     7     3     4 1   
     8     3     7 1   
     9     3    14 1   
    10     4     5 1   
    11     4     6 1   
    12     4    15 1   
    13     5    16 1   
    14     5    17 1   
    15     5    18 1   
    16     6    19 1   
    17     6    20 1   
    18     6    21 1   
    19     7     8 1   
    20     7     9 1   
@<TRIPOS>SUBSTRUCTURE
     1 MVA         1 TEMP              0 ****  ****    0 ROOT
