@<TRIPOS>MOLECULE
MVB
   48    50     1     0     0
SMALL
abcg2


@<TRIPOS>ATOM
      1 O1          52.9950     0.1660    53.8950 oh         1 MVB      -0.656000
      2 C1          54.9330    -2.6700    52.3020 c          1 MVB       0.676100
      3 O2          54.8740    -3.8510    52.0280 o          1 MVB      -0.510000
      4 O3          56.0220    -1.9860    51.9380 os         1 MVB      -0.469100
      5 O5          55.8850     1.4680    48.6360 oh         1 MVB      -0.662000
      6 C7          56.2960    -0.6000    52.3480 c6         1 MVB       0.203300
      7 C8          55.0200     0.1680    52.6290 c6         1 MVB      -0.114400
      8 C9          54.1590    -0.6070    53.6020 c6         1 MVB       0.177300
      9 C10         53.7910    -1.9440    52.9750 c6         1 MVB      -0.230400
     10 C11         58.4390     4.1380    52.5490 c3         1 MVB      -0.084100
     11 C12         57.1790    -0.0260    51.2520 c3         1 MVB      -0.085400
     12 C13         57.7460     1.3610    51.5970 c3         1 MVB      -0.068400
     13 C14         56.9020     2.5760    51.1640 c6         1 MVB      -0.049700
     14 C15         56.9990     3.7180    52.2010 c6         1 MVB      -0.028500
     15 C16         56.2180     4.9170    51.7470 c2         1 MVB      -0.209200
     16 C17         55.9730     5.1710    50.4570 ce         1 MVB      -0.172000
     17 C18         56.4340     4.3110    49.3760 ce         1 MVB      -0.075200
     18 C19         57.2640     3.0940    49.7560 c6         1 MVB      -0.005500
     19 C20         57.2040     2.0380    48.6520 c6         1 MVB       0.172300
     20 C21         57.5430     2.6630    47.3030 c6         1 MVB      -0.108400
     21 C22         56.5490     3.7640    46.9260 c6         1 MVB      -0.033200
     22 C23         56.1450     4.6010    48.0990 c2         1 MVB      -0.200200
     23 HO1         52.4920    -0.2870    54.5850 ho         1 MVB       0.447000
     24 H7          56.8740    -0.6860    53.2730 h1         1 MVB       0.048700
     25 H81         54.4670     0.3420    51.7020 hc         1 MVB       0.078700
     26 H82         55.2830     1.1360    53.0550 hc         1 MVB       0.078700
     27 H9          54.7260    -0.7770    54.5250 h1         1 MVB       0.036700
     28 H101        53.3420    -2.6280    53.6950 hc         1 MVB       0.083700
     29 H102        53.0480    -1.7650    52.1900 hc         1 MVB       0.083700
     30 H111        58.9700     4.4910    51.6630 hc         1 MVB       0.035033
     31 H112        58.4250     4.9540    53.2740 hc         1 MVB       0.035033
     32 H113        59.0050     3.3130    52.9840 hc         1 MVB       0.035033
     33 H121        56.6080     0.0060    50.3240 hc         1 MVB       0.067700
     34 H122        58.0030    -0.7270    51.1080 hc         1 MVB       0.067700
     35 H131        58.7440     1.4510    51.1620 hc         1 MVB       0.040200
     36 H132        57.8970     1.4030    52.6790 hc         1 MVB       0.040200
     37 H14         55.8510     2.2810    51.1360 hc         1 MVB       0.070700
     38 H15         56.5430     3.3450    53.1250 hc         1 MVB       0.047700
     39 H16         55.8760     5.6100    52.5090 ha         1 MVB       0.175000
     40 H17         55.4120     6.0570    50.1720 ha         1 MVB       0.174000
     41 H19         58.3140     3.4080    49.7980 hc         1 MVB       0.054700
     42 H20         57.9310     1.2500    48.8730 h1         1 MVB       0.033700
     43 H211        57.5640     1.8880    46.5320 hc         1 MVB       0.045700
     44 H212        58.5540     3.0750    47.3670 hc         1 MVB       0.045700
     45 H221        55.6470     3.3210    46.4850 hc         1 MVB       0.049700
     46 H222        56.9720     4.3980    46.1410 hc         1 MVB       0.049700
     47 H23         55.5500     5.4860    47.8900 ha         1 MVB       0.173000
     48 HO5         55.8450     0.8300    47.9120 ho         1 MVB       0.438000
@<TRIPOS>BOND
     1     1     8 1   
     2     1    23 1   
     3     2     3 2   
     4     2     4 1   
     5     2     9 1   
     6     4     6 1   
     7     5    19 1   
     8     5    48 1   
     9     6     7 1   
    10     6    11 1   
    11     6    24 1   
    12     7     8 1   
    13     7    25 1   
    14     7    26 1   
    15     8     9 1   
    16     8    27 1   
    17     9    28 1   
    18     9    29 1   
    19    10    14 1   
    20    10    30 1   
    21    10    31 1   
    22    10    32 1   
    23    11    12 1   
    24    11    33 1   
    25    11    34 1   
    26    12    13 1   
    27    12    35 1   
    28    12    36 1   
    29    13    14 1   
    30    13    18 1   
    31    13    37 1   
    32    14    15 1   
    33    14    38 1   
    34    15    16 2   
    35    15    39 1   
    36    16    17 1   
    37    16    40 1   
    38    17    18 1   
    39    17    22 2   
    40    18    19 1   
    41    18    41 1   
    42    19    20 1   
    43    19    42 1   
    44    20    21 1   
    45    20    43 1   
    46    20    44 1   
    47    21    22 1   
    48    21    45 1   
    49    21    46 1   
    50    22    47 1   
@<TRIPOS>SUBSTRUCTURE
     1 MVB         1 TEMP              0 ****  ****    0 ROOT
