@<TRIPOS>MOLECULE
MVB
   48    50     1     0     0
SMALL
No Charge or Current Charge


@<TRIPOS>ATOM
      1 O1          52.8340     0.0520    53.7970 oh         1 MVB      -0.656000
      2 C1          54.9960    -2.7960    52.5440 c          1 MVB       0.676100
      3 O2          55.0440    -4.0170    52.5610 o          1 MVB      -0.510000
      4 O3          56.0080    -2.0450    51.9990 os         1 MVB      -0.469100
      5 O5          55.7880     1.4980    48.5270 oh         1 MVB      -0.662000
      6 C7          56.2640    -0.6830    52.4040 c6         1 MVB       0.203300
      7 C8          54.9610     0.1090    52.6330 c6         1 MVB      -0.114400
      8 C9          54.0510    -0.6650    53.5960 c6         1 MVB       0.177300
      9 C10         53.7450    -2.0410    53.0010 c6         1 MVB      -0.230400
     10 C11         58.5240     4.2280    52.4770 c3         1 MVB      -0.084100
     11 C12         57.2130    -0.0780    51.3270 c3         1 MVB      -0.085400
     12 C13         57.7800     1.3370    51.6300 c3         1 MVB      -0.068400
     13 C14         56.9300     2.5850    51.1810 c6         1 MVB      -0.049700
     14 C15         57.0640     3.7500    52.2180 c6         1 MVB      -0.028500
     15 C16         56.2490     4.9520    51.7820 c2         1 MVB      -0.209200
     16 C17         55.9960     5.2250    50.4850 ce         1 MVB      -0.172000
     17 C18         56.4420     4.3770    49.3680 ce         1 MVB      -0.075200
     18 C19         57.2540     3.1070    49.7320 c6         1 MVB      -0.005500
     19 C20         57.1180     2.0360    48.6030 c6         1 MVB       0.172300
     20 C21         57.5020     2.6770    47.2460 c6         1 MVB      -0.108400
     21 C22         56.5780     3.8660    46.8780 c6         1 MVB      -0.033200
     22 C23         56.1880     4.7170    48.0820 c2         1 MVB      -0.200200
     23 HO1         52.3210    -0.4440    54.4720 ho         1 MVB       0.447000
     24 H7          56.8110    -0.7210    53.3580 h1         1 MVB       0.048700
     25 H81         54.4500     0.2870    51.6770 hc         1 MVB       0.078700
     26 H82         55.1900     1.0900    53.0670 hc         1 MVB       0.078700
     27 H9          54.5760    -0.7960    54.5550 h1         1 MVB       0.036700
     28 H101        53.1460    -2.6800    53.6610 hc         1 MVB       0.083700
     29 H102        53.1580    -1.8780    52.0870 hc         1 MVB       0.083700
     30 H111        58.9840     4.6440    51.5740 hc         1 MVB       0.035033
     31 H112        58.5430     5.0160    53.2410 hc         1 MVB       0.035033
     32 H113        59.1670     3.4180    52.8390 hc         1 MVB       0.035033
     33 H121        56.7130    -0.0900    50.3560 hc         1 MVB       0.067700
     34 H122        58.0700    -0.7540    51.2210 hc         1 MVB       0.067700
     35 H131        58.7770     1.4100    51.1770 hc         1 MVB       0.040200
     36 H132        57.9610     1.3750    52.7120 hc         1 MVB       0.040200
     37 H14         55.8770     2.2760    51.1840 hc         1 MVB       0.070700
     38 H15         56.6740     3.4030    53.1860 hc         1 MVB       0.047700
     39 H16         55.8850     5.6100    52.5730 ha         1 MVB       0.175000
     40 H17         55.4150     6.1120    50.2260 ha         1 MVB       0.174000
     41 H19         58.3100     3.4080    49.7320 hc         1 MVB       0.054700
     42 H20         57.8340     1.2250    48.8000 h1         1 MVB       0.033700
     43 H211        57.4850     1.9250    46.4450 hc         1 MVB       0.045700
     44 H212        58.5400     3.0330    47.3020 hc         1 MVB       0.045700
     45 H221        55.6600     3.4810    46.4130 hc         1 MVB       0.049700
     46 H222        57.0640     4.4930    46.1180 hc         1 MVB       0.049700
     47 H23         55.6330     5.6270    47.8510 ha         1 MVB       0.173000
     48 HO5         55.7420     0.9820    47.6940 ho         1 MVB       0.438000
@<TRIPOS>BOND
     1     1     8 1   
     2     1    23 1   
     3     2     3 2   
     4     2     4 1   
     5     2     9 1   
     6     4     6 1   
     7     5    19 1   
     8     5    48 1   
     9     6     7 1   
    10     6    11 1   
    11     6    24 1   
    12     7     8 1   
    13     7    25 1   
    14     7    26 1   
    15     8     9 1   
    16     8    27 1   
    17     9    28 1   
    18     9    29 1   
    19    10    14 1   
    20    10    30 1   
    21    10    31 1   
    22    10    32 1   
    23    11    12 1   
    24    11    33 1   
    25    11    34 1   
    26    12    13 1   
    27    12    35 1   
    28    12    36 1   
    29    13    14 1   
    30    13    18 1   
    31    13    37 1   
    32    14    15 1   
    33    14    38 1   
    34    15    16 2   
    35    15    39 1   
    36    16    17 1   
    37    16    40 1   
    38    17    18 1   
    39    17    22 2   
    40    18    19 1   
    41    18    41 1   
    42    19    20 1   
    43    19    42 1   
    44    20    21 1   
    45    20    43 1   
    46    20    44 1   
    47    21    22 1   
    48    21    45 1   
    49    21    46 1   
    50    22    47 1   
@<TRIPOS>SUBSTRUCTURE
     1 MVB         1 TEMP              0 ****  ****    0 ROOT
