@<TRIPOS>MOLECULE
MVC
   65    64     1     0     0
SMALL
bcc


@<TRIPOS>ATOM
      1 C17         10.7850     1.6680     0.1420 c3         1 MVC      -0.075400
      2 C9           2.5730    -1.0690     0.5790 c3         1 MVC      -0.075400
      3 C8           1.2700    -1.5190    -0.0710 c3         1 MVC      -0.074400
      4 C16          9.5390     1.1510    -0.5680 c3         1 MVC      -0.075400
      5 C10          3.7790    -1.8840     0.1310 c3         1 MVC      -0.072400
      6 C7           0.0570    -0.7360     0.4160 c3         1 MVC      -0.074400
      7 C24         -8.5810     0.0240    -0.4280 c3         1 MVC       0.105400
      8 C15          9.0290    -0.1670    -0.0000 c3         1 MVC      -0.072400
      9 C11          5.0840    -1.4330     0.7920 c3         1 MVC      -0.043200
     10 C6          -1.2520    -1.1900    -0.2190 c3         1 MVC      -0.074400
     11 C14          7.7790    -0.6830    -0.7160 c3         1 MVC      -0.043200
     12 C12          6.2290    -2.3320     0.4450 c2         1 MVC      -0.165200
     13 C5          -2.4600    -0.4130     0.2880 c3         1 MVC      -0.076400
     14 C13          7.3510    -2.0210    -0.2020 c2         1 MVC      -0.165200
     15 C4          -3.7740    -0.8830    -0.3230 c3         1 MVC      -0.067400
     16 C3          -4.9540    -0.0800     0.2000 c3         1 MVC      -0.137400
     17 C21        -10.8980     0.9080    -0.4460 c3         1 MVC       0.106400
     18 C22         -9.4740     1.1690     0.0180 c3         1 MVC       0.140100
     19 O19         -6.4810    -1.5420    -0.9610 o          1 MVC      -0.540000
     20 C1          -6.2850    -0.5260    -0.3410 c          1 MVC       0.641100
     21 O25         -7.2460     0.3400    -0.0360 os         1 MVC      -0.411900
     22 O23         -9.3910     1.3990     1.4040 oh         1 MVC      -0.563800
     23 O20        -11.6840     2.0350    -0.1480 oh         1 MVC      -0.579800
     24 C18         11.3060     2.9780    -0.4360 c3         1 MVC      -0.075400
     25 C19         12.5450     3.4960     0.2820 c3         1 MVC      -0.088100
     26 H101         3.6080    -2.9420     0.3590 hc         1 MVC       0.040200
     27 H102         3.8870    -1.8200    -0.9560 hc         1 MVC       0.040200
     28 H91C         2.7420    -0.0100     0.3580 hc         1 MVC       0.037200
     29 H92C         2.4760    -1.1400     1.6680 hc         1 MVC       0.037200
     30 H111         5.2900    -0.3950     0.5220 hc         1 MVC       0.044700
     31 H112         4.9440    -1.4460     1.8790 hc         1 MVC       0.044700
     32 H81C         1.3530    -1.4230    -1.1590 hc         1 MVC       0.038200
     33 H82C         1.1170    -2.5860     0.1280 hc         1 MVC       0.038200
     34 H171        10.5670     1.8030     1.2070 hc         1 MVC       0.037700
     35 H172        11.5740     0.9090     0.0890 hc         1 MVC       0.037700
     36 H161         8.7470     1.9050    -0.5070 hc         1 MVC       0.036700
     37 H162         9.7560     1.0240    -1.6340 hc         1 MVC       0.036700
     38 H12          6.1030    -3.3660     0.7550 ha         1 MVC       0.114000
     39 H71C        -0.0200    -0.8310     1.5050 hc         1 MVC       0.037200
     40 H72C         0.2050     0.3310     0.2150 hc         1 MVC       0.037200
     41 H241        -8.8960    -0.9170     0.0340 h1         1 MVC       0.050700
     42 H242        -8.6400    -0.1000    -1.5120 h1         1 MVC       0.050700
     43 H22         -9.1200     2.0900    -0.4590 h1         1 MVC       0.098700
     44 H151         9.8200    -0.9220    -0.0640 hc         1 MVC       0.039200
     45 H152         8.8080    -0.0490     1.0650 hc         1 MVC       0.039200
     46 H13          8.0700    -2.8210    -0.3650 ha         1 MVC       0.114000
     47 H61C        -1.1830    -1.0880    -1.3070 hc         1 MVC       0.039700
     48 H62C        -1.3970    -2.2580    -0.0230 hc         1 MVC       0.039700
     49 H141         6.9770     0.0540    -0.6290 hc         1 MVC       0.043700
     50 H142         8.0000    -0.7680    -1.7860 hc         1 MVC       0.043700
     51 H51C        -2.5160    -0.5030     1.3790 hc         1 MVC       0.038200
     52 H52C        -2.3210     0.6530     0.0790 hc         1 MVC       0.038200
     53 H41C        -3.7210    -0.7970    -1.4120 hc         1 MVC       0.053700
     54 H42C        -3.9160    -1.9440    -0.1030 hc         1 MVC       0.053700
     55 H31C        -5.0050    -0.1500     1.2920 hc         1 MVC       0.073200
     56 H32C        -4.8240     0.9840    -0.0170 hc         1 MVC       0.073200
     57 H211       -10.8860     0.6940    -1.5230 h1         1 MVC       0.021200
     58 H212       -11.2790     0.0040     0.0510 h1         1 MVC       0.021200
     59 H20        -12.5880     1.8450    -0.4100 ho         1 MVC       0.406000
     60 H23         -9.7410     0.6290     1.8670 ho         1 MVC       0.397000
     61 H181        11.5320     2.8390    -1.4980 hc         1 MVC       0.036200
     62 H182        10.5150     3.7330    -0.3910 hc         1 MVC       0.036200
     63 H191        12.9080     4.4220    -0.1660 hc         1 MVC       0.031367
     64 H192        12.3360     3.6980     1.3340 hc         1 MVC       0.031367
     65 H193        13.3580     2.7690     0.2420 hc         1 MVC       0.031367
@<TRIPOS>BOND
     1     1     4 1   
     2     1    24 1   
     3     1    34 1   
     4     1    35 1   
     5     2     3 1   
     6     2     5 1   
     7     2    28 1   
     8     2    29 1   
     9     3     6 1   
    10     3    32 1   
    11     3    33 1   
    12     4     8 1   
    13     4    36 1   
    14     4    37 1   
    15     5     9 1   
    16     5    26 1   
    17     5    27 1   
    18     6    10 1   
    19     6    39 1   
    20     6    40 1   
    21     7    18 1   
    22     7    21 1   
    23     7    41 1   
    24     7    42 1   
    25     8    11 1   
    26     8    44 1   
    27     8    45 1   
    28     9    12 1   
    29     9    30 1   
    30     9    31 1   
    31    10    13 1   
    32    10    47 1   
    33    10    48 1   
    34    11    14 1   
    35    11    49 1   
    36    11    50 1   
    37    12    14 2   
    38    12    38 1   
    39    13    15 1   
    40    13    51 1   
    41    13    52 1   
    42    14    46 1   
    43    15    16 1   
    44    15    53 1   
    45    15    54 1   
    46    16    20 1   
    47    16    55 1   
    48    16    56 1   
    49    17    18 1   
    50    17    23 1   
    51    17    57 1   
    52    17    58 1   
    53    18    22 1   
    54    18    43 1   
    55    19    20 2   
    56    20    21 1   
    57    22    60 1   
    58    23    59 1   
    59    24    25 1   
    60    24    61 1   
    61    24    62 1   
    62    25    63 1   
    63    25    64 1   
    64    25    65 1   
@<TRIPOS>SUBSTRUCTURE
     1 MVC         1 TEMP              0 ****  ****    0 ROOT
