@<TRIPOS>MOLECULE
MVC
   65    64     1     0     0
SMALL
No Charge or Current Charge


@<TRIPOS>ATOM
      1 C17          9.2610     2.2490    -0.0610 c3         1 MVC      -0.075400
      2 C9           2.9090    -2.0130     0.8440 c3         1 MVC      -0.075400
      3 C8           1.4950    -2.1170     0.2330 c3         1 MVC      -0.074400
      4 C16          8.2070     1.4880    -0.8940 c3         1 MVC      -0.075400
      5 C10          4.0110    -2.5710    -0.0840 c3         1 MVC      -0.072400
      6 C7           0.3930    -1.5580     1.1600 c3         1 MVC      -0.074400
      7 C24         -7.6390     0.4120    -0.2040 c3         1 MVC       0.128600
      8 C15          8.2510    -0.0410    -0.6750 c3         1 MVC      -0.072400
      9 C11          5.4250    -2.4650     0.5220 c3         1 MVC      -0.043200
     10 C6          -1.0210    -1.6610     0.5500 c3         1 MVC      -0.074400
     11 C14          7.1970    -0.8030    -1.5030 c3         1 MVC      -0.043200
     12 C12          6.4890    -3.0090    -0.4130 c2         1 MVC      -0.215200
     13 C5          -2.1220    -1.1020     1.4770 c3         1 MVC      -0.076400
     14 C13          7.2540    -2.3000    -1.2620 c2         1 MVC      -0.215200
     15 C4          -3.5370    -1.2050     0.8660 c3         1 MVC      -0.067400
     16 C3          -4.6400    -0.6460     1.7960 c3         1 MVC      -0.137400
     17 C21         -9.0890     1.8540    -1.7630 c3         1 MVC       0.129600
     18 C22         -7.8200     1.8000    -0.8730 c3         1 MVC       0.163300
     19 O19         -6.7120    -1.7700     1.2000 o          1 MVC      -0.491000
     20 C1          -6.0230    -0.7600     1.1510 c          1 MVC       0.592100
     21 O25         -6.3650     0.3810     0.4740 os         1 MVC      -0.435100
     22 O23         -7.9120     2.8390     0.1220 oh         1 MVC      -0.626000
     23 O20         -9.2530     3.1720    -2.3150 oh         1 MVC      -0.642000
     24 C18          9.2150     3.7770    -0.2800 c3         1 MVC      -0.075400
     25 C19         10.2670     4.5370     0.5520 c3         1 MVC      -0.088100
     26 H101         3.7950    -3.6230    -0.3110 hc         1 MVC       0.040200
     27 H102         3.9890    -2.0270    -1.0370 hc         1 MVC       0.040200
     28 H91C         3.1270    -0.9620     1.0700 hc         1 MVC       0.037200
     29 H92C         2.9310    -2.5570     1.7960 hc         1 MVC       0.037200
     30 H111         5.6280    -1.4170     0.7730 hc         1 MVC       0.044700
     31 H112         5.4550    -3.0130     1.4720 hc         1 MVC       0.044700
     32 H81C         1.4730    -1.5730    -0.7200 hc         1 MVC       0.038200
     33 H82C         1.2760    -3.1680     0.0070 hc         1 MVC       0.038200
     34 H171         9.1040     2.0320     1.0030 hc         1 MVC       0.037700
     35 H172        10.2610     1.8780    -0.3200 hc         1 MVC       0.037700
     36 H161         7.2070     1.8590    -0.6360 hc         1 MVC       0.036700
     37 H162         8.3640     1.7030    -1.9590 hc         1 MVC       0.036700
     38 H12          6.6240    -4.0900    -0.3420 ha         1 MVC       0.164000
     39 H71C         0.4150    -2.1010     2.1130 hc         1 MVC       0.037200
     40 H72C         0.6120    -0.5060     1.3860 hc         1 MVC       0.037200
     41 H241        -8.4630     0.2370     0.5000 h1         1 MVC       0.050700
     42 H242        -7.6790    -0.3670    -0.9770 h1         1 MVC       0.050700
     43 H22         -6.9510     1.9740    -1.5250 h1         1 MVC       0.098700
     44 H151         9.2500    -0.4150    -0.9340 hc         1 MVC       0.039200
     45 H152         8.0940    -0.2570     0.3890 hc         1 MVC       0.039200
     46 H13          7.9960    -2.8150    -1.8750 ha         1 MVC       0.164000
     47 H61C        -1.0430    -1.1180    -0.4040 hc         1 MVC       0.039700
     48 H62C        -1.2400    -2.7130     0.3240 hc         1 MVC       0.039700
     49 H141         6.2020    -0.4100    -1.2630 hc         1 MVC       0.043700
     50 H142         7.3540    -0.5960    -2.5690 hc         1 MVC       0.043700
     51 H51C        -2.1000    -1.6450     2.4300 hc         1 MVC       0.038200
     52 H52C        -1.9030    -0.0500     1.7020 hc         1 MVC       0.038200
     53 H41C        -3.5590    -0.6630    -0.0880 hc         1 MVC       0.053700
     54 H42C        -3.7560    -2.2570     0.6400 hc         1 MVC       0.053700
     55 H31C        -4.6350    -1.2070     2.7370 hc         1 MVC       0.073200
     56 H32C        -4.4150     0.4130     1.9750 hc         1 MVC       0.073200
     57 H211        -8.9930     1.1150    -2.5690 h1         1 MVC       0.021200
     58 H212        -9.9680     1.5810    -1.1630 h1         1 MVC       0.021200
     59 H20        -10.0380     3.1430    -2.9080 ho         1 MVC       0.445000
     60 H23         -8.3490     3.5890    -0.3410 ho         1 MVC       0.436000
     61 H181         9.3740     3.9980    -1.3430 hc         1 MVC       0.036200
     62 H182         8.2170     4.1520    -0.0200 hc         1 MVC       0.036200
     63 H191        10.1960     5.6150     0.3640 hc         1 MVC       0.031367
     64 H192        10.1130     4.3650     1.6240 hc         1 MVC       0.031367
     65 H193        11.2800     4.2090     0.2890 hc         1 MVC       0.031367
@<TRIPOS>BOND
     1     1     4 1   
     2     1    24 1   
     3     1    34 1   
     4     1    35 1   
     5     2     3 1   
     6     2     5 1   
     7     2    28 1   
     8     2    29 1   
     9     3     6 1   
    10     3    32 1   
    11     3    33 1   
    12     4     8 1   
    13     4    36 1   
    14     4    37 1   
    15     5     9 1   
    16     5    26 1   
    17     5    27 1   
    18     6    10 1   
    19     6    39 1   
    20     6    40 1   
    21     7    18 1   
    22     7    21 1   
    23     7    41 1   
    24     7    42 1   
    25     8    11 1   
    26     8    44 1   
    27     8    45 1   
    28     9    12 1   
    29     9    30 1   
    30     9    31 1   
    31    10    13 1   
    32    10    47 1   
    33    10    48 1   
    34    11    14 1   
    35    11    49 1   
    36    11    50 1   
    37    12    14 2   
    38    12    38 1   
    39    13    15 1   
    40    13    51 1   
    41    13    52 1   
    42    14    46 1   
    43    15    16 1   
    44    15    53 1   
    45    15    54 1   
    46    16    20 1   
    47    16    55 1   
    48    16    56 1   
    49    17    18 1   
    50    17    23 1   
    51    17    57 1   
    52    17    58 1   
    53    18    22 1   
    54    18    43 1   
    55    19    20 2   
    56    20    21 1   
    57    22    60 1   
    58    23    59 1   
    59    24    25 1   
    60    24    61 1   
    61    24    62 1   
    62    25    63 1   
    63    25    64 1   
    64    25    65 1   
@<TRIPOS>SUBSTRUCTURE
     1 MVC         1 TEMP              0 ****  ****    0 ROOT
