@<TRIPOS>MOLECULE
MVD
   77    79     1     0     0
SMALL
No Charge or Current Charge


@<TRIPOS>ATOM
      1 O3          17.5050    17.9590    34.1240 oh         1 MVD      -0.662000
      2 O25          4.3340    27.0400    35.1330 oh         1 MVD      -0.660000
      3 C1          14.9930    17.6830    35.7890 c6         1 MVD       0.214500
      4 C2          15.6930    16.5480    34.9800 c6         1 MVD      -0.088700
      5 C3          16.3950    17.1470    33.7240 c6         1 MVD       0.181300
      6 C4          15.4110    17.9780    32.8530 c6         1 MVD      -0.074200
      7 C5          14.6340    19.0160    33.6780 ce         1 MVD      -0.071200
      8 C6          14.5140    20.3080    33.2520 cf         1 MVD      -0.163000
      9 C7          13.8100    21.3760    33.9650 cf         1 MVD      -0.188000
     10 C8          13.4790    22.6090    33.4880 c2         1 MVD      -0.080400
     11 C9          13.8140    23.1020    32.0680 c6         1 MVD      -0.042200
     12 C10         14.0030    18.4520    34.8850 ce         1 MVD      -0.085200
     13 C11         12.6090    23.7780    31.3530 c6         1 MVD      -0.070400
     14 C12         11.8680    24.8000    32.2620 c6         1 MVD      -0.064400
     15 C13         11.4800    24.1640    33.6300 c5         1 MVD      -0.041000
     16 C14         12.7860    23.6830    34.3470 c5         1 MVD      -0.035500
     17 C15         12.2390    23.2530    35.7430 c5         1 MVD      -0.071400
     18 C16         11.1820    24.3690    36.0630 c5         1 MVD      -0.073400
     19 C17         11.0590    25.2080    34.7370 c5         1 MVD      -0.054700
     20 C18         10.4460    23.0100    33.3660 c3         1 MVD      -0.077100
     21 C19         12.6770    18.5720    35.1360 c2         1 MVD      -0.285000
     22 C20          9.7660    26.0890    34.5720 c3         1 MVD      -0.044700
     23 C21          9.7850    27.2670    35.5860 c3         1 MVD      -0.090100
     24 C22          8.4020    25.3310    34.6360 c3         1 MVD      -0.075400
     25 C23          7.1500    26.1970    34.3500 c3         1 MVD      -0.072400
     26 C24          5.8500    25.3540    34.2560 c3         1 MVD      -0.102400
     27 C25          4.5270    26.1480    34.0340 c3         1 MVD       0.184000
     28 C26          4.5570    26.9910    32.7360 c3         1 MVD      -0.100100
     29 C27          3.3230    25.1780    34.0080 c3         1 MVD      -0.100100
     30 O1          14.3570    17.1560    36.9650 oh         1 MVD      -0.659000
     31 C28         14.7230    15.3860    34.5970 c3         1 MVD      -0.085100
     32 HO3         17.9030    18.3160    33.3010 ho         1 MVD       0.444000
     33 H25          4.4050    26.5020    35.9500 ho         1 MVD       0.438000
     34 H1          15.7670    18.4010    36.0990 h1         1 MVD       0.056700
     35 H2          16.4650    16.0920    35.6140 hc         1 MVD       0.055700
     36 H3          16.7720    16.3150    33.1100 h1         1 MVD       0.032700
     37 H41         14.6940    17.3030    32.3670 hc         1 MVD       0.051200
     38 H42         15.9600    18.4610    32.0330 hc         1 MVD       0.051200
     39 H6          15.0110    20.5660    32.3190 ha         1 MVD       0.164000
     40 H7          13.5530    21.1330    34.9940 ha         1 MVD       0.181000
     41 H91         14.1790    22.2960    31.4230 hc         1 MVD       0.044200
     42 H92         14.6370    23.8260    32.1390 hc         1 MVD       0.044200
     43 H111        11.9080    23.0050    31.0120 hc         1 MVD       0.040200
     44 H112        12.9590    24.2830    30.4430 hc         1 MVD       0.040200
     45 H121        10.9750    25.1810    31.7470 hc         1 MVD       0.040200
     46 H122        12.5190    25.6700    32.4270 hc         1 MVD       0.040200
     47 H14         13.4990    24.5070    34.4750 hc         1 MVD       0.052700
     48 H151        13.0320    23.2030    36.4970 hc         1 MVD       0.045200
     49 H152        11.7550    22.2690    35.7210 hc         1 MVD       0.045200
     50 H161        11.5040    25.0000    36.8990 hc         1 MVD       0.041700
     51 H162        10.2320    23.9160    36.3650 hc         1 MVD       0.041700
     52 H17         11.8500    25.9680    34.7640 hc         1 MVD       0.042700
     53 H181         9.6970    23.3060    32.6230 hc         1 MVD       0.034367
     54 H182         9.9060    22.7070    34.2700 hc         1 MVD       0.034367
     55 H183        10.9260    22.1070    32.9740 hc         1 MVD       0.034367
     56 H191        12.0170    19.1060    34.4530 ha         1 MVD       0.172000
     57 H192        12.2090    18.1400    36.0190 ha         1 MVD       0.172000
     58 H20          9.8220    26.5450    33.5760 hc         1 MVD       0.047700
     59 H211         9.0210    28.0150    35.3450 hc         1 MVD       0.032367
     60 H212        10.7500    27.7870    35.5700 hc         1 MVD       0.032367
     61 H213         9.6090    26.9080    36.6070 hc         1 MVD       0.032367
     62 H221         8.2850    24.8610    35.6200 hc         1 MVD       0.039200
     63 H222         8.3980    24.5250    33.9020 hc         1 MVD       0.039200
     64 H231         7.3060    26.7390    33.4100 hc         1 MVD       0.045200
     65 H232         7.0310    26.9440    35.1420 hc         1 MVD       0.045200
     66 H241         5.7560    24.7590    35.1740 hc         1 MVD       0.038700
     67 H242         5.9640    24.6320    33.4380 hc         1 MVD       0.038700
     68 H261         3.5900    27.4800    32.5680 hc         1 MVD       0.041033
     69 H262         4.7720    26.3570    31.8670 hc         1 MVD       0.041033
     70 H263         5.3190    27.7760    32.7850 hc         1 MVD       0.041033
     71 H271         2.3790    25.7250    33.8970 hc         1 MVD       0.041033
     72 H272         3.2680    24.5910    34.9330 hc         1 MVD       0.041033
     73 H273         3.4080    24.4780    33.1680 hc         1 MVD       0.041033
     74 HO1         15.0620    16.7190    37.4880 ho         1 MVD       0.445000
     75 H281        15.2370    14.6250    33.9970 hc         1 MVD       0.038367
     76 H282        13.8650    15.7420    34.0150 hc         1 MVD       0.038367
     77 H283        14.3300    14.8810    35.4880 hc         1 MVD       0.038367
@<TRIPOS>BOND
     1     1     5 1   
     2     1    32 1   
     3     2    27 1   
     4     2    33 1   
     5     3     4 1   
     6     3    12 1   
     7     3    30 1   
     8     3    34 1   
     9     4     5 1   
    10     4    31 1   
    11     4    35 1   
    12     5     6 1   
    13     5    36 1   
    14     6     7 1   
    15     6    37 1   
    16     6    38 1   
    17     7     8 2   
    18     7    12 1   
    19     8     9 1   
    20     8    39 1   
    21     9    10 2   
    22     9    40 1   
    23    10    11 1   
    24    10    16 1   
    25    11    13 1   
    26    11    41 1   
    27    11    42 1   
    28    12    21 2   
    29    13    14 1   
    30    13    43 1   
    31    13    44 1   
    32    14    15 1   
    33    14    45 1   
    34    14    46 1   
    35    15    16 1   
    36    15    19 1   
    37    15    20 1   
    38    16    17 1   
    39    16    47 1   
    40    17    18 1   
    41    17    48 1   
    42    17    49 1   
    43    18    19 1   
    44    18    50 1   
    45    18    51 1   
    46    19    22 1   
    47    19    52 1   
    48    20    53 1   
    49    20    54 1   
    50    20    55 1   
    51    21    56 1   
    52    21    57 1   
    53    22    23 1   
    54    22    24 1   
    55    22    58 1   
    56    23    59 1   
    57    23    60 1   
    58    23    61 1   
    59    24    25 1   
    60    24    62 1   
    61    24    63 1   
    62    25    26 1   
    63    25    64 1   
    64    25    65 1   
    65    26    27 1   
    66    26    66 1   
    67    26    67 1   
    68    27    28 1   
    69    27    29 1   
    70    28    68 1   
    71    28    69 1   
    72    28    70 1   
    73    29    71 1   
    74    29    72 1   
    75    29    73 1   
    76    30    74 1   
    77    31    75 1   
    78    31    76 1   
    79    31    77 1   
@<TRIPOS>SUBSTRUCTURE
     1 MVD         1 TEMP              0 ****  ****    0 ROOT
