@<TRIPOS>MOLECULE
MVD
   77    79     1     0     0
SMALL
abcg2


@<TRIPOS>ATOM
      1 O3          17.0480    18.0020    34.2220 oh         1 MVD      -0.662000
      2 O25          4.5190    26.9830    34.3580 oh         1 MVD      -0.660000
      3 C1          14.5090    17.6400    35.6160 c6         1 MVD       0.214500
      4 C2          15.2300    16.5750    34.7660 c6         1 MVD      -0.088700
      5 C3          16.0140    17.2390    33.6340 c6         1 MVD       0.181300
      6 C4          15.1010    18.1070    32.7680 c6         1 MVD      -0.074200
      7 C5          14.3320    19.0980    33.5960 ce         1 MVD      -0.071200
      8 C6          14.3260    20.4080    33.2930 cf         1 MVD      -0.163000
      9 C7          13.6710    21.4650    34.0380 cf         1 MVD      -0.188000
     10 C8          13.5750    22.7530    33.6690 c2         1 MVD      -0.080400
     11 C9          14.1270    23.3490    32.4000 c6         1 MVD      -0.042200
     12 C10         13.6240    18.4970    34.7470 ce         1 MVD      -0.085200
     13 C11         13.0610    24.1000    31.5910 c6         1 MVD      -0.070400
     14 C12         12.2580    25.0830    32.4450 c6         1 MVD      -0.064400
     15 C13         11.6900    24.4150    33.6950 c5         1 MVD      -0.041000
     16 C14         12.8630    23.7860    34.4820 c5         1 MVD      -0.035500
     17 C15         12.2630    23.4640    35.8460 c5         1 MVD      -0.071400
     18 C16         11.2500    24.6090    36.0870 c5         1 MVD      -0.073400
     19 C17         11.1660    25.4000    34.7590 c5         1 MVD      -0.054700
     20 C18         10.6600    23.3550    33.3060 c3         1 MVD      -0.077100
     21 C19         12.3200    18.6660    34.9600 c2         1 MVD      -0.285000
     22 C20          9.8450    26.1420    34.4820 c3         1 MVD      -0.044700
     23 C21          9.8710    27.5020    35.1800 c3         1 MVD      -0.090100
     24 C22          8.5730    25.3770    34.8700 c3         1 MVD      -0.075400
     25 C23          7.3140    25.8900    34.1780 c3         1 MVD      -0.072400
     26 C24          6.0740    25.1310    34.6330 c3         1 MVD      -0.102400
     27 C25          4.7370    25.6110    34.0490 c3         1 MVD       0.184000
     28 C26          4.7260    25.5170    32.5280 c3         1 MVD      -0.100100
     29 C27          3.6050    24.7620    34.6280 c3         1 MVD      -0.100100
     30 O1          13.7530    17.0680    36.6530 oh         1 MVD      -0.659000
     31 C28         14.2730    15.5160    34.2300 c3         1 MVD      -0.085100
     32 HO3         17.4990    18.4900    33.5260 ho         1 MVD       0.444000
     33 H25          4.5220    27.0770    35.3170 ho         1 MVD       0.438000
     34 H1          15.2780    18.3050    36.0360 h1         1 MVD       0.056700
     35 H2          15.9590    16.0710    35.4130 hc         1 MVD       0.055700
     36 H3          16.4380    16.4450    33.0010 h1         1 MVD       0.032700
     37 H41         14.4050    17.4480    32.2380 hc         1 MVD       0.051200
     38 H42         15.6850    18.6140    31.9950 hc         1 MVD       0.051200
     39 H6          14.8840    20.6990    32.4090 ha         1 MVD       0.164000
     40 H7          13.2200    21.1770    34.9800 ha         1 MVD       0.181000
     41 H91         14.6070    22.6040    31.7650 hc         1 MVD       0.044200
     42 H92         14.9100    24.0650    32.6790 hc         1 MVD       0.044200
     43 H111        12.3920    23.3790    31.1160 hc         1 MVD       0.040200
     44 H112        13.5490    24.6390    30.7750 hc         1 MVD       0.040200
     45 H121        11.4610    25.5330    31.8440 hc         1 MVD       0.040200
     46 H122        12.9130    25.9050    32.7580 hc         1 MVD       0.040200
     47 H14         13.5830    24.6060    34.6330 hc         1 MVD       0.052700
     48 H151        13.0260    23.4040    36.6230 hc         1 MVD       0.045200
     49 H152        11.7490    22.5000    35.8370 hc         1 MVD       0.045200
     50 H161        11.5640    25.2550    36.9080 hc         1 MVD       0.041700
     51 H162        10.2810    24.1990    36.3740 hc         1 MVD       0.041700
     52 H17         11.9380    26.1800    34.8040 hc         1 MVD       0.042700
     53 H181         9.8360    23.7970    32.7410 hc         1 MVD       0.034367
     54 H182        10.2340    22.8480    34.1720 hc         1 MVD       0.034367
     55 H183        11.1020    22.5800    32.6790 hc         1 MVD       0.034367
     56 H191        11.7240    19.2760    34.2940 ha         1 MVD       0.172000
     57 H192        11.8030    18.2050    35.7900 ha         1 MVD       0.172000
     58 H20          9.8030    26.3260    33.4000 hc         1 MVD       0.047700
     59 H211         8.9520    28.0680    35.0190 hc         1 MVD       0.032367
     60 H212        10.6980    28.1160    34.8180 hc         1 MVD       0.032367
     61 H213         9.9980    27.3800    36.2580 hc         1 MVD       0.032367
     62 H221         8.4350    25.4390    35.9560 hc         1 MVD       0.039200
     63 H222         8.6760    24.3140    34.6450 hc         1 MVD       0.039200
     64 H231         7.4410    25.7880    33.0960 hc         1 MVD       0.045200
     65 H232         7.1810    26.9580    34.3730 hc         1 MVD       0.045200
     66 H241         6.0070    25.1850    35.7280 hc         1 MVD       0.038700
     67 H242         6.1930    24.0680    34.3980 hc         1 MVD       0.038700
     68 H261         3.7500    25.7960    32.1270 hc         1 MVD       0.041033
     69 H262         4.9380    24.4970    32.2060 hc         1 MVD       0.041033
     70 H263         5.4740    26.1710    32.0780 hc         1 MVD       0.041033
     71 H271         2.6370    25.0850    34.2420 hc         1 MVD       0.041033
     72 H272         3.5780    24.8360    35.7190 hc         1 MVD       0.041033
     73 H273         3.7320    23.7080    34.3760 hc         1 MVD       0.041033
     74 HO1         14.3540    16.5740    37.2200 ho         1 MVD       0.445000
     75 H281        14.8130    14.7880    33.6220 hc         1 MVD       0.038367
     76 H282        13.4860    15.9450    33.6080 hc         1 MVD       0.038367
     77 H283        13.7900    14.9720    35.0390 hc         1 MVD       0.038367
@<TRIPOS>BOND
     1     1     5 1   
     2     1    32 1   
     3     2    27 1   
     4     2    33 1   
     5     3     4 1   
     6     3    12 1   
     7     3    30 1   
     8     3    34 1   
     9     4     5 1   
    10     4    31 1   
    11     4    35 1   
    12     5     6 1   
    13     5    36 1   
    14     6     7 1   
    15     6    37 1   
    16     6    38 1   
    17     7     8 2   
    18     7    12 1   
    19     8     9 1   
    20     8    39 1   
    21     9    10 2   
    22     9    40 1   
    23    10    11 1   
    24    10    16 1   
    25    11    13 1   
    26    11    41 1   
    27    11    42 1   
    28    12    21 2   
    29    13    14 1   
    30    13    43 1   
    31    13    44 1   
    32    14    15 1   
    33    14    45 1   
    34    14    46 1   
    35    15    16 1   
    36    15    19 1   
    37    15    20 1   
    38    16    17 1   
    39    16    47 1   
    40    17    18 1   
    41    17    48 1   
    42    17    49 1   
    43    18    19 1   
    44    18    50 1   
    45    18    51 1   
    46    19    22 1   
    47    19    52 1   
    48    20    53 1   
    49    20    54 1   
    50    20    55 1   
    51    21    56 1   
    52    21    57 1   
    53    22    23 1   
    54    22    24 1   
    55    22    58 1   
    56    23    59 1   
    57    23    60 1   
    58    23    61 1   
    59    24    25 1   
    60    24    62 1   
    61    24    63 1   
    62    25    26 1   
    63    25    64 1   
    64    25    65 1   
    65    26    27 1   
    66    26    66 1   
    67    26    67 1   
    68    27    28 1   
    69    27    29 1   
    70    28    68 1   
    71    28    69 1   
    72    28    70 1   
    73    29    71 1   
    74    29    72 1   
    75    29    73 1   
    76    30    74 1   
    77    31    75 1   
    78    31    76 1   
    79    31    77 1   
@<TRIPOS>SUBSTRUCTURE
     1 MVD         1 TEMP              0 ****  ****    0 ROOT
