@<TRIPOS>MOLECULE
MVE
   78    83     1     0     0
SMALL
No Charge or Current Charge


@<TRIPOS>ATOM
      1 C10          1.4740    -0.6010    -0.7060 cc         1 MVE      -0.170000
      2 C11          2.5740    -1.3890    -0.9270 cd         1 MVE      -0.202000
      3 C12          3.9180    -1.0320    -1.2250 cd         1 MVE       0.406000
      4 N13          4.3640     0.2960    -1.2760 nh         1 MVE      -0.786400
      5 C01         -5.3920    -0.6960     4.1110 c3         1 MVE      -0.094100
      6 C02         -4.8240     0.0990     2.9260 c3         1 MVE       0.160600
      7 C04         -5.1250     0.1920     0.4530 c6         1 MVE       0.247300
      8 C05         -3.6710    -0.2810     0.2070 ca         1 MVE      -0.173300
      9 C06         -3.3550    -1.6510     0.2980 ca         1 MVE      -0.054000
     10 C07         -2.0310    -2.0580     0.0780 ca         1 MVE      -0.166000
     11 C08         -1.0450    -1.0970    -0.2220 ca         1 MVE       0.452800
     12 C09          0.3580    -1.4650    -0.4780 cc         1 MVE      -0.221800
     13 C14          5.5220     0.7070    -2.1090 c6         1 MVE       0.182300
     14 C15          6.8440     0.7570    -1.2920 c6         1 MVE       0.065500
     15 C19          7.8110     2.1780     2.1810 cx         1 MVE      -0.242700
     16 C20          8.9350     1.8750     3.1550 cx         1 MVE      -0.098400
     17 C21          7.6380     1.1070     3.2420 cx         1 MVE      -0.098400
     18 C22          5.4560     1.2380     0.7820 c6         1 MVE       0.065500
     19 C23          4.1840     1.1950    -0.1080 c6         1 MVE       0.182300
     20 C24          4.7200    -2.1160    -1.4670 cc         1 MVE      -0.302000
     21 C25          4.1690    -3.4420    -1.3860 cc         1 MVE       0.353900
     22 C28          0.7720    -2.7860    -0.5840 cd         1 MVE      -0.164100
     23 C30         -2.6190     0.6110    -0.0960 ca         1 MVE       0.351900
     24 C31         -6.0670    -0.4370    -0.6140 c6         1 MVE      -0.118400
     25 C32         -7.5310     0.0490    -0.4450 c6         1 MVE       0.171300
     26 C35         -8.3750     1.4910    -2.9700 c3         1 MVE      -0.090600
     27 C36         -7.5940     3.6570    -1.9430 c3         1 MVE      -0.090600
     28 C37         -6.8050     2.1380     0.5510 c6         1 MVE       0.171300
     29 C38         -5.3130     1.7430     0.4030 c6         1 MVE      -0.118400
     30 N16          6.7590     1.4070     0.0550 n          1 MVE      -0.412800
     31 N26          2.9120    -3.7970    -1.0970 nd         1 MVE      -0.511800
     32 N27          2.1290    -2.6890    -0.8570 na         1 MVE       0.273900
     33 N29         -1.3430     0.2190    -0.3080 nb         1 MVE      -0.683000
     34 N33         -7.6430     1.5370    -0.5340 n3         1 MVE      -0.722600
     35 O03         -5.5290    -0.3310     1.7450 os         1 MVE      -0.465000
     36 O18          9.0430     1.7330     0.1720 o          1 MVE      -0.611100
     37 H101         1.4310     0.4870    -0.7180 ha         1 MVE       0.220000
     38 H013        -6.4660    -0.5040     4.2260 hc         1 MVE       0.041700
     39 H012        -5.2420    -1.7720     3.9610 hc         1 MVE       0.041700
     40 H011        -4.8890    -0.4050     5.0400 hc         1 MVE       0.041700
     41 H022        -4.9730     1.1700     3.1130 h1         1 MVE       0.024700
     42 H021        -3.7470    -0.0970     2.8430 h1         1 MVE       0.024700
     43 H061        -4.1170    -2.3870     0.5440 ha         1 MVE       0.129000
     44 H071        -1.7810    -3.1110     0.1500 ha         1 MVE       0.122000
     45 H142         5.6500     0.0370    -2.9720 h1         1 MVE       0.070950
     46 H141         5.3350     1.7100    -2.5220 h1         1 MVE       0.070950
     47 H151         7.2020    -0.2710    -1.1460 h1         1 MVE       0.063450
     48 H152         7.6010     1.2710    -1.9010 h1         1 MVE       0.063450
     49 H191         7.2860     3.1180     2.3320 hc         1 MVE       0.085700
     50 H202         9.8110     1.3450     2.7890 hc         1 MVE       0.081950
     51 H201         9.1420     2.6060     3.9340 hc         1 MVE       0.081950
     52 H211         6.9760     1.3210     4.0770 hc         1 MVE       0.081950
     53 H212         7.6480     0.0660     2.9260 hc         1 MVE       0.081950
     54 H221         5.3200     2.0500     1.5090 h1         1 MVE       0.063450
     55 H222         5.5040     0.3000     1.3520 h1         1 MVE       0.063450
     56 H232         3.9630     2.2150    -0.4560 h1         1 MVE       0.070950
     57 H231         3.3370     0.8820     0.5180 h1         1 MVE       0.070950
     58 H241         5.7680    -2.0110    -1.7100 ha         1 MVE       0.128000
     59 H251         4.8040    -4.2970    -1.5740 h4         1 MVE       0.030100
     60 H281         0.2570    -3.7370    -0.5100 h4         1 MVE       0.233000
     61 H301        -2.7810     1.6840    -0.1740 h4         1 MVE       0.015100
     62 H312        -5.7040    -0.1990    -1.6220 hc         1 MVE       0.052450
     63 H311        -6.0490    -1.5310    -0.5380 hc         1 MVE       0.052450
     64 H322        -8.1730    -0.4550    -1.1800 h1         1 MVE       0.056700
     65 H321        -7.8950    -0.2880     0.5380 h1         1 MVE       0.056700
     66 H341        -6.4120     1.9030    -2.2410 h1         1 MVE       0.019700
     67 H353        -8.1300     0.4390    -3.1540 hc         1 MVE       0.036533
     68 H352        -9.4230     1.5580    -2.6530 hc         1 MVE       0.036533
     69 H351        -8.2760     2.0100    -3.9310 hc         1 MVE       0.036533
     70 H363        -8.5570     3.9600    -1.5160 hc         1 MVE       0.036533
     71 H362        -6.7910     4.1550    -1.3890 hc         1 MVE       0.036533
     72 H361        -7.5440     4.0290    -2.9730 hc         1 MVE       0.036533
     73 H372        -7.1620     1.7890     1.5310 h1         1 MVE       0.056700
     74 H371        -6.8960     3.2320     0.5780 h1         1 MVE       0.056700
     75 H381        -4.7210     2.2390     1.1820 hc         1 MVE       0.052450
     76 H382        -4.9370     2.1370    -0.5500 hc         1 MVE       0.052450
     77 C17          7.9530     1.7550     0.7300 c          1 MVE       0.644100
     78 C34         -7.4360     2.1150    -1.9060 c3         1 MVE       0.187500
@<TRIPOS>BOND
     1     1     2 2   
     2     1    12 1   
     3     1    37 1   
     4     2     3 1   
     5     2    32 1   
     6     3     4 1   
     7     3    20 2   
     8     4    13 1   
     9     4    19 1   
    10     5     6 1   
    11     5    38 1   
    12     5    39 1   
    13     5    40 1   
    14     6    35 1   
    15     6    41 1   
    16     6    42 1   
    17     7     8 1   
    18     7    24 1   
    19     7    29 1   
    20     7    35 1   
    21     8     9 ar  
    22     8    23 ar  
    23     9    10 ar  
    24     9    43 1   
    25    10    11 ar  
    26    10    44 1   
    27    11    12 1   
    28    11    33 ar  
    29    12    22 2   
    30    13    14 1   
    31    13    45 1   
    32    13    46 1   
    33    14    30 1   
    34    14    47 1   
    35    14    48 1   
    36    15    16 1   
    37    15    17 1   
    38    15    49 1   
    39    15    77 1   
    40    16    17 1   
    41    16    50 1   
    42    16    51 1   
    43    17    52 1   
    44    17    53 1   
    45    18    19 1   
    46    18    30 1   
    47    18    54 1   
    48    18    55 1   
    49    19    56 1   
    50    19    57 1   
    51    20    21 1   
    52    20    58 1   
    53    21    31 2   
    54    21    59 1   
    55    22    32 1   
    56    22    60 1   
    57    23    33 ar  
    58    23    61 1   
    59    24    25 1   
    60    24    62 1   
    61    24    63 1   
    62    25    34 1   
    63    25    64 1   
    64    25    65 1   
    65    26    67 1   
    66    26    68 1   
    67    26    69 1   
    68    26    78 1   
    69    27    70 1   
    70    27    71 1   
    71    27    72 1   
    72    27    78 1   
    73    28    29 1   
    74    28    34 1   
    75    28    73 1   
    76    28    74 1   
    77    29    75 1   
    78    29    76 1   
    79    30    77 1   
    80    31    32 1   
    81    34    78 1   
    82    36    77 2   
    83    66    78 1   
@<TRIPOS>SUBSTRUCTURE
     1 MVE         1 TEMP              0 ****  ****    0 ROOT
