@<TRIPOS>MOLECULE
MVE
   78    83     1     0     0
SMALL
bcc


@<TRIPOS>ATOM
      1 C10          1.4120    -1.0070    -0.5480 cc         1 MVE      -0.120000
      2 C11          2.5190    -1.8150    -0.7370 cd         1 MVE      -0.151300
      3 C12          3.9050    -1.6020    -1.0330 cd         1 MVE       0.267600
      4 N13          4.3970    -0.3290    -1.1230 nh         1 MVE      -0.648000
      5 C01         -5.9920    -1.8950     3.3680 c3         1 MVE      -0.094100
      6 C02         -5.4110    -0.6960     2.6520 c3         1 MVE       0.137400
      7 C04         -5.0650     0.0540     0.3840 c6         1 MVE       0.224100
      8 C05         -3.6420    -0.4660     0.2490 ca         1 MVE      -0.238600
      9 C06         -3.4030    -1.8400     0.2300 ca         1 MVE      -0.072000
     10 C07         -2.1220    -2.3180     0.0450 ca         1 MVE      -0.249300
     11 C08         -1.0740    -1.4100    -0.1220 ca         1 MVE       0.518100
     12 C09          0.3010    -1.8500    -0.3450 cc         1 MVE      -0.221800
     13 C14          5.7030    -0.1000    -1.7150 c6         1 MVE       0.182300
     14 C15          6.8210    -0.1040    -0.6790 c6         1 MVE       0.065500
     15 C19          7.0500     2.8630     1.6810 cx         1 MVE      -0.242700
     16 C20          7.7820     4.1780     1.6250 cx         1 MVE      -0.098400
     17 C21          8.0850     3.2230     2.7200 cx         1 MVE      -0.098400
     18 C22          5.2250     0.6570     0.9660 c6         1 MVE       0.065500
     19 C23          4.1180     0.6560    -0.0840 c6         1 MVE       0.182300
     20 C24          4.6460    -2.7370    -1.2880 cc         1 MVE      -0.385300
     21 C25          4.0420    -4.0070    -1.1900 cc         1 MVE       0.419200
     22 C28          0.7460    -3.1590    -0.4230 cd         1 MVE      -0.114100
     23 C30         -2.5280     0.3490     0.0900 ca         1 MVE       0.417200
     24 C31         -5.7870    -0.1100    -0.9600 c6         1 MVE      -0.118400
     25 C32         -7.1990     0.4840    -0.9280 c6         1 MVE       0.171300
     26 C35         -7.8340     2.8580    -2.7010 c3         1 MVE      -0.090600
     27 C36         -6.5720     4.2190    -1.0580 c3         1 MVE      -0.090600
     28 C37         -6.5950     2.0180     0.7650 c6         1 MVE       0.171300
     29 C38         -5.1450     1.5320     0.7860 c6         1 MVE      -0.118400
     30 N16          6.5210     0.8750     0.3520 n          1 MVE      -0.479800
     31 N26          2.8050    -4.2370    -0.8750 nd         1 MVE      -0.511800
     32 N27          2.0740    -3.1310    -0.6670 na         1 MVE       0.223200
     33 N29         -1.2910    -0.0980    -0.0910 nb         1 MVE      -0.683000
     34 N33         -7.2430     1.8840    -0.5300 n3         1 MVE      -0.722600
     35 O03         -5.7800    -0.7690     1.2900 os         1 MVE      -0.418600
     36 O18          8.5430     1.8480     0.1670 o          1 MVE      -0.611100
     37 H101         1.3830     0.0690    -0.5750 ha         1 MVE       0.170000
     38 H013        -7.0780    -1.9290     3.2670 hc         1 MVE       0.041700
     39 H012        -5.5820    -2.8280     2.9790 hc         1 MVE       0.041700
     40 H011        -5.7590    -1.8420     4.4310 hc         1 MVE       0.041700
     41 H022        -5.7880     0.2280     3.1080 h1         1 MVE       0.024700
     42 H021        -4.3200    -0.6880     2.7670 h1         1 MVE       0.024700
     43 H061        -4.2190    -2.5400     0.3600 ha         1 MVE       0.147000
     44 H071        -1.9420    -3.3850     0.0290 ha         1 MVE       0.140000
     45 H142         5.8960    -0.8330    -2.4970 h1         1 MVE       0.070950
     46 H141         5.6750     0.8800    -2.2000 h1         1 MVE       0.070950
     47 H151         6.9230    -1.0950    -0.2220 h1         1 MVE       0.063450
     48 H152         7.7670     0.1390    -1.1540 h1         1 MVE       0.063450
     49 H191         6.0230     2.9260     2.0050 hc         1 MVE       0.085700
     50 H202         8.5180     4.3080     0.8430 hc         1 MVE       0.081950
     51 H201         7.2020     5.0610     1.8580 hc         1 MVE       0.081950
     52 H211         7.7230     3.4390     3.7160 hc         1 MVE       0.081950
     53 H212         9.0260     2.6890     2.6860 hc         1 MVE       0.081950
     54 H221         5.0060     1.4140     1.7120 h1         1 MVE       0.063450
     55 H222         5.2330    -0.3080     1.4850 h1         1 MVE       0.063450
     56 H232         4.0450     1.6430    -0.5460 h1         1 MVE       0.070950
     57 H231         3.1740     0.4470     0.4080 h1         1 MVE       0.070950
     58 H241         5.6990    -2.6950    -1.5180 ha         1 MVE       0.146000
     59 H251         4.6410    -4.8920    -1.3640 h4         1 MVE       0.030100
     60 H281         0.2290    -4.1000    -0.3370 h4         1 MVE       0.183000
     61 H301        -2.6270     1.4280     0.1080 h4         1 MVE       0.015100
     62 H312        -5.1910     0.3700    -1.7410 hc         1 MVE       0.052450
     63 H311        -5.8410    -1.1700    -1.2230 hc         1 MVE       0.052450
     64 H322        -7.6570     0.3560    -1.9080 h1         1 MVE       0.056700
     65 H321        -7.8140    -0.0890    -0.2290 h1         1 MVE       0.056700
     66 H341        -5.8420     2.4750    -2.0280 h1         1 MVE       0.019700
     67 H353        -8.0190     1.8860    -3.1590 hc         1 MVE       0.036533
     68 H352        -8.7850     3.2360    -2.3210 hc         1 MVE       0.036533
     69 H351        -7.4980     3.5230    -3.4980 hc         1 MVE       0.036533
     70 H363        -7.4580     4.5920    -0.5390 hc         1 MVE       0.036533
     71 H362        -5.7230     4.2920    -0.3780 hc         1 MVE       0.036533
     72 H361        -6.3690     4.8880    -1.8940 hc         1 MVE       0.036533
     73 H372        -7.1840     1.4450     1.4880 h1         1 MVE       0.056700
     74 H371        -6.6410     3.0510     1.1050 h1         1 MVE       0.056700
     75 H381        -4.7040     1.7040     1.7710 hc         1 MVE       0.052450
     76 H382        -4.5620     2.1350     0.0860 hc         1 MVE       0.052450
     77 C17          7.4280     1.8270     0.6780 c          1 MVE       0.711100
     78 C34         -6.7950     2.8050    -1.5830 c3         1 MVE       0.187500
@<TRIPOS>BOND
     1     1     2 2   
     2     1    12 1   
     3     1    37 1   
     4     2     3 1   
     5     2    32 1   
     6     3     4 1   
     7     3    20 2   
     8     4    13 1   
     9     4    19 1   
    10     5     6 1   
    11     5    38 1   
    12     5    39 1   
    13     5    40 1   
    14     6    35 1   
    15     6    41 1   
    16     6    42 1   
    17     7     8 1   
    18     7    24 1   
    19     7    29 1   
    20     7    35 1   
    21     8     9 ar  
    22     8    23 ar  
    23     9    10 ar  
    24     9    43 1   
    25    10    11 ar  
    26    10    44 1   
    27    11    12 1   
    28    11    33 ar  
    29    12    22 2   
    30    13    14 1   
    31    13    45 1   
    32    13    46 1   
    33    14    30 1   
    34    14    47 1   
    35    14    48 1   
    36    15    16 1   
    37    15    17 1   
    38    15    49 1   
    39    15    77 1   
    40    16    17 1   
    41    16    50 1   
    42    16    51 1   
    43    17    52 1   
    44    17    53 1   
    45    18    19 1   
    46    18    30 1   
    47    18    54 1   
    48    18    55 1   
    49    19    56 1   
    50    19    57 1   
    51    20    21 1   
    52    20    58 1   
    53    21    31 2   
    54    21    59 1   
    55    22    32 1   
    56    22    60 1   
    57    23    33 ar  
    58    23    61 1   
    59    24    25 1   
    60    24    62 1   
    61    24    63 1   
    62    25    34 1   
    63    25    64 1   
    64    25    65 1   
    65    26    67 1   
    66    26    68 1   
    67    26    69 1   
    68    26    78 1   
    69    27    70 1   
    70    27    71 1   
    71    27    72 1   
    72    27    78 1   
    73    28    29 1   
    74    28    34 1   
    75    28    73 1   
    76    28    74 1   
    77    29    75 1   
    78    29    76 1   
    79    30    77 1   
    80    31    32 1   
    81    34    78 1   
    82    36    77 2   
    83    66    78 1   
@<TRIPOS>SUBSTRUCTURE
     1 MVE         1 TEMP              0 ****  ****    0 ROOT
