@<TRIPOS>MOLECULE
MVF
   63    65     1     0     0
SMALL
abcg2


@<TRIPOS>ATOM
      1 C1          -4.1330     1.4040     0.1640 c6         1 MVF      -0.089700
      2 C2          -3.7290     2.8460     0.4700 c6         1 MVF      -0.072900
      3 C3          -4.9010     3.8040     0.2710 c6         1 MVF      -0.073400
      4 C4          -5.4780     3.6860    -1.1350 c6         1 MVF      -0.075400
      5 C5          -5.8680     2.2470    -1.4520 c6         1 MVF      -0.073400
      6 C6          -4.6910     1.2940    -1.2540 c6         1 MVF      -0.072900
      7 N7          -3.3370    -1.0050     0.3170 n7         1 MVF      -0.850400
      8 C8          -3.0050     0.3970     0.4870 c3         1 MVF       0.117500
      9 C9          -1.7600     0.6550    -0.3460 c          1 MVF       0.630100
     10 O0          -1.6590     0.2740    -1.5060 o          1 MVF      -0.594100
     11 N11         -0.7770     1.3470     0.2370 nj         1 MVF      -0.404800
     12 C12          0.5430     1.5960    -0.2960 cy         1 MVF       0.018700
     13 C13          1.2680     0.3160    -0.6780 c          1 MVF       0.597100
     14 O14          1.1240    -0.7100    -0.0330 o          1 MVF      -0.583100
     15 N15          2.0920     0.4240    -1.7270 ns         1 MVF      -0.497900
     16 C16          2.9580    -0.6570    -2.1500 c3         1 MVF       0.151300
     17 C17          4.1500    -0.8310    -1.2430 ca         1 MVF      -0.099300
     18 C22          5.1860     0.1020    -1.2560 ca         1 MVF      -0.100500
     19 C21          6.2770    -0.0380    -0.4160 ca         1 MVF      -0.083500
     20 C20          6.3570    -1.1120     0.4710 ca         1 MVF      -0.140900
     21 C19          5.3250    -2.0470     0.4810 ca         1 MVF      -0.083500
     22 C18          4.2350    -1.9050    -0.3670 ca         1 MVF      -0.100500
     23 C23          7.5440    -1.2440     1.3600 ce         1 MVF       0.660800
     24 N25          7.3400    -1.9730     2.4970 nv         1 MVF      -1.077200
     25 N24          8.6500    -0.7250     0.9860 n2         1 MVF      -0.830100
     26 C26          0.9480     2.1340     1.1020 cy         1 MVF      -0.099400
     27 C27         -0.4490     1.7250     1.6070 cy         1 MVF       0.108000
     28 C28         -4.4480    -1.4580     1.1170 c3         1 MVF       0.087800
     29 C29         -4.6810    -2.9440     0.9130 c          1 MVF       0.605100
     30 O30         -4.3970    -3.5030    -0.1360 o          1 MVF      -0.591100
     31 N30         -5.2580    -3.5680     1.9490 nt         1 MVF      -0.613000
     32 H1          -4.9510     1.1600     0.8550 hc         1 MVF       0.041700
     33 H21C        -3.3610     2.9230     1.4980 hc         1 MVF       0.046700
     34 H22C        -2.9030     3.1550    -0.1810 hc         1 MVF       0.046700
     35 H61C        -3.9120     1.5270    -1.9860 hc         1 MVF       0.046700
     36 H62C        -5.0120     0.2700    -1.4660 hc         1 MVF       0.046700
     37 H8          -2.7590     0.5410     1.5460 h1         1 MVF       0.058700
     38 H31C        -5.6800     3.5820     1.0090 hc         1 MVF       0.037700
     39 H32C        -4.5790     4.8300     0.4630 hc         1 MVF       0.037700
     40 H41C        -6.3390     4.3490    -1.2490 hc         1 MVF       0.040200
     41 H42C        -4.7260     4.0230    -1.8570 hc         1 MVF       0.040200
     42 H51C        -6.6950     1.9400    -0.8030 hc         1 MVF       0.037700
     43 H52C        -6.2380     2.1720    -2.4780 hc         1 MVF       0.037700
     44 H7          -3.4970    -1.2160    -0.6600 hn         1 MVF       0.460000
     45 H281        -4.2430    -1.2460     2.1690 h1         1 MVF       0.040200
     46 H282        -5.4060    -0.9610     0.8920 h1         1 MVF       0.040200
     47 H12          0.5670     2.3350    -1.1000 h1         1 MVF       0.073700
     48 H271        -1.0580     2.5350     2.0080 h1         1 MVF       0.056700
     49 H272        -0.4580     0.8870     2.3040 h1         1 MVF       0.056700
     50 H261         1.7830     1.6250     1.5770 hc         1 MVF       0.067700
     51 H262         1.1280     3.2060     1.1130 hc         1 MVF       0.067700
     52 H15          2.1580     1.3040    -2.2120 hn         1 MVF       0.314500
     53 H161         2.3850    -1.5840    -2.1990 h1         1 MVF       0.063200
     54 H162         3.2860    -0.4270    -3.1630 h1         1 MVF       0.063200
     55 H18          3.4450    -2.6440    -0.3460 ha         1 MVF       0.119000
     56 H22          5.1440     0.9460    -1.9350 ha         1 MVF       0.119000
     57 H19          5.3650    -2.9080     1.1350 ha         1 MVF       0.126500
     58 H21          7.0770     0.6900    -0.4420 ha         1 MVF       0.126500
     59 H24          9.3750    -0.8570     1.6860 hn         1 MVF       0.370400
     60 H25A         6.4160    -1.9930     2.8940 hn         1 MVF       0.461000
     61 H25B         8.0760    -1.9720     3.1850 hn         1 MVF       0.461000
     62 H301        -5.4790    -3.0870     2.8030 hn         1 MVF       0.312500
     63 H302        -5.5390    -4.5320     1.8740 hn         1 MVF       0.312500
@<TRIPOS>BOND
     1     1     2 1   
     2     1     6 1   
     3     1     8 1   
     4     1    32 1   
     5     2     3 1   
     6     2    33 1   
     7     2    34 1   
     8     3     4 1   
     9     3    38 1   
    10     3    39 1   
    11     4     5 1   
    12     4    40 1   
    13     4    41 1   
    14     5     6 1   
    15     5    42 1   
    16     5    43 1   
    17     6    35 1   
    18     6    36 1   
    19     7     8 1   
    20     7    28 1   
    21     7    44 1   
    22     8     9 1   
    23     8    37 1   
    24     9    10 2   
    25     9    11 1   
    26    11    12 1   
    27    11    27 1   
    28    12    13 1   
    29    12    26 1   
    30    12    47 1   
    31    13    14 2   
    32    13    15 1   
    33    15    16 1   
    34    15    52 1   
    35    16    17 1   
    36    16    53 1   
    37    16    54 1   
    38    17    18 ar  
    39    17    22 ar  
    40    18    19 ar  
    41    18    56 1   
    42    19    20 ar  
    43    19    58 1   
    44    20    21 ar  
    45    20    23 1   
    46    21    22 ar  
    47    21    57 1   
    48    22    55 1   
    49    23    24 1   
    50    23    25 2   
    51    24    60 1   
    52    24    61 1   
    53    25    59 1   
    54    26    27 1   
    55    26    50 1   
    56    26    51 1   
    57    27    48 1   
    58    27    49 1   
    59    28    29 1   
    60    28    45 1   
    61    28    46 1   
    62    29    30 2   
    63    29    31 1   
    64    31    62 1   
    65    31    63 1   
@<TRIPOS>SUBSTRUCTURE
     1 MVF         1 TEMP              0 ****  ****    0 ROOT
