@<TRIPOS>MOLECULE
MVF
   63    65     1     0     0
SMALL
No Charge or Current Charge


@<TRIPOS>ATOM
      1 C1          -4.2950     1.5430     0.0960 c6         1 MVF      -0.089700
      2 C2          -3.9560     3.0570     0.2410 c6         1 MVF      -0.072900
      3 C3          -5.1670     3.9470    -0.1320 c6         1 MVF      -0.073400
      4 C4          -5.6670     3.6400    -1.5640 c6         1 MVF      -0.075400
      5 C5          -6.0050     2.1380    -1.7260 c6         1 MVF      -0.073400
      6 C6          -4.7960     1.2440    -1.3510 c6         1 MVF      -0.072900
      7 N7          -3.4380    -0.8420     0.5040 n7         1 MVF      -0.850400
      8 C8          -3.1070     0.6240     0.5680 c3         1 MVF       0.117500
      9 C9          -1.7310     0.9650    -0.1480 c          1 MVF       0.630100
     10 O0          -1.5920     0.5640    -1.3040 o          1 MVF      -0.594100
     11 N11         -0.8600     1.8060     0.6310 nj         1 MVF      -0.404800
     12 C12          0.4810     1.6680    -0.0520 cy         1 MVF       0.018700
     13 C13          1.1470     0.3100    -0.5990 c          1 MVF       0.597100
     14 O14          0.9110    -0.8740    -0.3810 o          1 MVF      -0.583100
     15 N15          2.1760     0.6310    -1.4610 ns         1 MVF      -0.497900
     16 C16          3.0660    -0.3360    -2.1070 c3         1 MVF       0.151300
     17 C17          4.3020    -0.5990    -1.2580 ca         1 MVF      -0.099300
     18 C22          5.4490     0.2010    -1.4050 ca         1 MVF      -0.100500
     19 C21          6.5890    -0.0370    -0.6180 ca         1 MVF      -0.083500
     20 C20          6.6020    -1.0720     0.3470 ca         1 MVF      -0.140900
     21 C19          5.4490    -1.8840     0.4720 ca         1 MVF      -0.083500
     22 C18          4.3110    -1.6440    -0.3170 ca         1 MVF      -0.100500
     23 C23          7.8380    -1.3360     1.1590 ce         1 MVF       0.660800
     24 N25          7.7040    -1.9970     2.3290 nv         1 MVF      -1.077200
     25 N24          8.9840    -0.8870     0.8520 n2         1 MVF      -0.830100
     26 C26          1.0060     1.4000     1.4270 cy         1 MVF      -0.099400
     27 C27         -0.4520     0.9020     1.7480 cy         1 MVF       0.108000
     28 C28         -4.5960    -1.3360     1.3210 c3         1 MVF       0.087800
     29 C29         -4.8640    -2.8730     1.2140 c          1 MVF       0.605100
     30 O30         -4.6560    -3.5310     0.2040 o          1 MVF      -0.591100
     31 N30         -5.3570    -3.4760     2.3210 nt         1 MVF      -0.613000
     32 H1          -5.1260     1.3410     0.7860 hc         1 MVF       0.041700
     33 H21C        -3.6450     3.2760     1.2720 hc         1 MVF       0.046700
     34 H22C        -3.1070     3.3220    -0.4040 hc         1 MVF       0.046700
     35 H61C        -3.9880     1.4120    -2.0760 hc         1 MVF       0.046700
     36 H62C        -5.0880     0.1900    -1.4480 hc         1 MVF       0.046700
     37 H8          -2.9720     0.8820     1.6260 h1         1 MVF       0.058700
     38 H31C        -5.9820     3.7860     0.5880 hc         1 MVF       0.037700
     39 H32C        -4.8880     5.0070    -0.0550 hc         1 MVF       0.037700
     40 H41C        -6.5540     4.2480    -1.7880 hc         1 MVF       0.040200
     41 H42C        -4.8980     3.9270    -2.2940 hc         1 MVF       0.040200
     42 H51C        -6.8650     1.8810    -1.0910 hc         1 MVF       0.037700
     43 H52C        -6.3110     1.9350    -2.7610 hc         1 MVF       0.037700
     44 H7          -3.5830    -1.1050    -0.4820 hn         1 MVF       0.460000
     45 H281        -4.4290    -1.1000     2.3810 h1         1 MVF       0.040200
     46 H282        -5.5290    -0.8410     1.0230 h1         1 MVF       0.040200
     47 H12          0.8570     2.5930    -0.5010 h1         1 MVF       0.073700
     48 H271        -0.8290     1.2130     2.7290 h1         1 MVF       0.056700
     49 H272        -0.6180    -0.1710     1.5850 h1         1 MVF       0.056700
     50 H261         1.8150     0.6810     1.6130 hc         1 MVF       0.067700
     51 H262         1.2720     2.3200     1.9600 hc         1 MVF       0.067700
     52 H15          2.3500     1.6160    -1.6210 hn         1 MVF       0.314500
     53 H161         2.5280    -1.2760    -2.2910 h1         1 MVF       0.063200
     54 H162         3.3690     0.0640    -3.0840 h1         1 MVF       0.063200
     55 H18          3.4330    -2.2760    -0.1980 ha         1 MVF       0.119000
     56 H22          5.4590     1.0110    -2.1310 ha         1 MVF       0.119000
     57 H19          5.4270    -2.7150     1.1740 ha         1 MVF       0.126500
     58 H21          7.4630     0.5950    -0.7550 ha         1 MVF       0.126500
     59 H24          9.6780    -1.3660     1.4360 hn         1 MVF       0.370400
     60 H25A         6.7540    -2.0610     2.6740 hn         1 MVF       0.461000
     61 H25B         8.4040    -1.8020     3.0350 hn         1 MVF       0.461000
     62 H301        -5.5290    -2.9380     3.1580 hn         1 MVF       0.312500
     63 H302        -5.5450    -4.4670     2.3000 hn         1 MVF       0.312500
@<TRIPOS>BOND
     1     1     2 1   
     2     1     6 1   
     3     1     8 1   
     4     1    32 1   
     5     2     3 1   
     6     2    33 1   
     7     2    34 1   
     8     3     4 1   
     9     3    38 1   
    10     3    39 1   
    11     4     5 1   
    12     4    40 1   
    13     4    41 1   
    14     5     6 1   
    15     5    42 1   
    16     5    43 1   
    17     6    35 1   
    18     6    36 1   
    19     7     8 1   
    20     7    28 1   
    21     7    44 1   
    22     8     9 1   
    23     8    37 1   
    24     9    10 2   
    25     9    11 1   
    26    11    12 1   
    27    11    27 1   
    28    12    13 1   
    29    12    26 1   
    30    12    47 1   
    31    13    14 2   
    32    13    15 1   
    33    15    16 1   
    34    15    52 1   
    35    16    17 1   
    36    16    53 1   
    37    16    54 1   
    38    17    18 ar  
    39    17    22 ar  
    40    18    19 ar  
    41    18    56 1   
    42    19    20 ar  
    43    19    58 1   
    44    20    21 ar  
    45    20    23 1   
    46    21    22 ar  
    47    21    57 1   
    48    22    55 1   
    49    23    24 1   
    50    23    25 2   
    51    24    60 1   
    52    24    61 1   
    53    25    59 1   
    54    26    27 1   
    55    26    50 1   
    56    26    51 1   
    57    27    48 1   
    58    27    49 1   
    59    28    29 1   
    60    28    45 1   
    61    28    46 1   
    62    29    30 2   
    63    29    31 1   
    64    31    62 1   
    65    31    63 1   
@<TRIPOS>SUBSTRUCTURE
     1 MVF         1 TEMP              0 ****  ****    0 ROOT
