@<TRIPOS>MOLECULE
MVG
   46    49     1     0     0
SMALL
abcg2


@<TRIPOS>ATOM
      1 O2          -6.5210     1.6710    -0.6090 o          1 MVG      -0.714500
      2 C17         -5.3970     2.0170    -0.2010 c          1 MVG       0.710600
      3 O1          -5.0480     3.1570     0.1600 o          1 MVG      -0.714500
      4 C16         -4.3320     0.9280    -0.1350 ca         1 MVG      -0.105600
      5 C15         -4.6030    -0.3680    -0.5670 ca         1 MVG      -0.101000
      6 C14         -3.6360    -1.3590    -0.5110 ca         1 MVG      -0.104500
      7 C18         -3.0580     1.2020     0.3590 ca         1 MVG      -0.101000
      8 C19         -2.0870     0.2170     0.4180 ca         1 MVG      -0.104500
      9 C13         -2.3620    -1.0810    -0.0140 cp         1 MVG      -0.203500
     10 C12         -1.3220    -2.1210     0.0500 cp         1 MVG       0.436500
     11 N4          -0.0520    -1.7210     0.0540 nb         1 MVG      -0.702000
     12 C20         -1.6210    -3.4790     0.1240 ca         1 MVG       0.251900
     13 N5          -0.6630    -4.3960     0.1750 nb         1 MVG      -0.632000
     14 C21          0.5930    -3.9990     0.1640 ca         1 MVG       0.264900
     15 C11          0.8960    -2.6310     0.1130 ca         1 MVG       0.436500
     16 N3           2.2070    -2.1850     0.1180 na         1 MVG       0.052100
     17 C6           2.6990    -0.9030    -0.0070 ca         1 MVG       0.050800
     18 C5           2.0840     0.3310    -0.1770 ca         1 MVG      -0.202000
     19 N2           3.2070    -3.0940     0.2560 nc         1 MVG      -0.528100
     20 C10          4.3230    -2.4310     0.2270 cd         1 MVG       0.383800
     21 C7           4.0960    -1.0380     0.0630 ca         1 MVG      -0.294900
     22 C8           4.9020     0.0970    -0.0330 ca         1 MVG      -0.010000
     23 C9           4.3130     1.3270    -0.2000 ca         1 MVG      -0.211000
     24 C4           2.9000     1.4640    -0.2840 ca         1 MVG       0.362000
     25 N1           2.3170     2.6760    -0.5050 nu         1 MVG      -0.963200
     26 C2           2.9860     3.9590    -0.3890 c3         1 MVG       0.234500
     27 C3           2.1240     5.0170    -1.0640 c3         1 MVG      -0.113100
     28 C1           3.2910     4.3370     1.0590 c3         1 MVG      -0.113100
     29 H2          -5.5820    -0.6050    -0.9610 ha         1 MVG       0.130500
     30 H3          -3.8780    -2.3480    -0.8800 ha         1 MVG       0.095500
     31 H4          -2.8240     2.2000     0.7030 ha         1 MVG       0.130500
     32 H5          -1.1100     0.4530     0.8190 ha         1 MVG       0.095500
     33 H6          -2.6430    -3.8340     0.1590 h4         1 MVG       0.035100
     34 H7           1.3670    -4.7530     0.2000 h4         1 MVG       0.043100
     35 H8           1.0110     0.4260    -0.2350 ha         1 MVG       0.158000
     36 H9           5.2670    -2.9470     0.3250 h4         1 MVG       0.040800
     37 H10          5.9800     0.0170     0.0240 ha         1 MVG       0.106000
     38 H11          4.9450     2.2010    -0.2690 ha         1 MVG       0.109000
     39 H12          1.3170     2.7050    -0.3830 hn         1 MVG       0.487000
     40 H13          3.9260     3.8980    -0.9450 h1         1 MVG       0.051700
     41 H14          1.1730     5.1420    -0.5410 hc         1 MVG       0.042533
     42 H15          2.6320     5.9800    -1.0600 hc         1 MVG       0.042533
     43 H16          1.9120     4.7500    -2.1000 hc         1 MVG       0.042533
     44 H17          3.8130     5.2940     1.1050 hc         1 MVG       0.042533
     45 H18          2.3680     4.4270     1.6340 hc         1 MVG       0.042533
     46 H19          3.9210     3.5940     1.5490 hc         1 MVG       0.042533
@<TRIPOS>BOND
     1     1     2 1   
     2     2     3 1   
     3     2     4 1   
     4     4     5 ar  
     5     4     7 ar  
     6     5     6 ar  
     7     5    29 1   
     8     6     9 ar  
     9     6    30 1   
    10     7     8 ar  
    11     7    31 1   
    12     8     9 ar  
    13     8    32 1   
    14     9    10 1   
    15    10    11 ar  
    16    10    12 ar  
    17    11    15 ar  
    18    12    13 ar  
    19    12    33 1   
    20    13    14 ar  
    21    14    15 ar  
    22    14    34 1   
    23    15    16 1   
    24    16    17 1   
    25    16    19 1   
    26    17    18 ar  
    27    17    21 ar  
    28    18    24 ar  
    29    18    35 1   
    30    19    20 2   
    31    20    21 1   
    32    20    36 1   
    33    21    22 ar  
    34    22    23 ar  
    35    22    37 1   
    36    23    24 ar  
    37    23    38 1   
    38    24    25 1   
    39    25    26 1   
    40    25    39 1   
    41    26    27 1   
    42    26    28 1   
    43    26    40 1   
    44    27    41 1   
    45    27    42 1   
    46    27    43 1   
    47    28    44 1   
    48    28    45 1   
    49    28    46 1   
@<TRIPOS>SUBSTRUCTURE
     1 MVG         1 TEMP              0 ****  ****    0 ROOT
