@<TRIPOS>MOLECULE
MVG
   46    49     1     0     0
SMALL
No Charge or Current Charge


@<TRIPOS>ATOM
      1 O2          -7.1020     1.3480     0.4770 o          1 MVG      -0.714500
      2 C17         -6.0640     1.4970     1.1070 c          1 MVG       0.710600
      3 O1          -5.9430     2.3310     1.9950 o          1 MVG      -0.714500
      4 C16         -4.8730     0.6100     0.7720 ca         1 MVG      -0.105600
      5 C15         -4.9580    -0.3680    -0.2440 ca         1 MVG      -0.101000
      6 C14         -3.8590    -1.1880    -0.5540 ca         1 MVG      -0.104500
      7 C18         -3.6500     0.7420     1.4660 ca         1 MVG      -0.101000
      8 C19         -2.5510    -0.0780     1.1550 ca         1 MVG      -0.104500
      9 C13         -2.6250    -1.0690     0.1390 cp         1 MVG      -0.203500
     10 C12         -1.4430    -1.9530    -0.1940 cp         1 MVG       0.436500
     11 N4          -0.2280    -1.5470     0.2680 nb         1 MVG      -0.702000
     12 C20         -1.5590    -3.1670    -0.9520 ca         1 MVG       0.251900
     13 N5          -0.4960    -3.9610    -1.2560 nb         1 MVG      -0.632000
     14 C21          0.7040    -3.5200    -0.7820 ca         1 MVG       0.264900
     15 C11          0.8610    -2.3220    -0.0200 ca         1 MVG       0.436500
     16 N3           2.1650    -2.0070     0.3920 na         1 MVG       0.052100
     17 C6           2.8260    -0.8120     0.1820 ca         1 MVG       0.050800
     18 C5           2.4350     0.3560    -0.4840 ca         1 MVG      -0.202000
     19 N2           2.9460    -2.9250     1.1130 nc         1 MVG      -0.528100
     20 C10          4.0950    -2.2610     1.3320 cd         1 MVG       0.383800
     21 C7           4.0500    -0.9320     0.7570 ca         1 MVG      -0.294900
     22 C8           4.9950     0.0990     0.7260 ca         1 MVG      -0.010000
     23 C9           4.6290     1.2900     0.0660 ca         1 MVG      -0.211000
     24 C4           3.3520     1.4230    -0.5340 ca         1 MVG       0.362000
     25 N1           2.9780     2.5950    -1.1940 nu         1 MVG      -0.963200
     26 C2           3.4780     3.9510    -0.9370 c3         1 MVG       0.234500
     27 C3           2.9460     4.8960    -2.0290 c3         1 MVG      -0.113100
     28 C1           3.0650     4.4100     0.4760 c3         1 MVG      -0.113100
     29 H2          -5.8820    -0.4950    -0.8040 ha         1 MVG       0.130500
     30 H3          -3.9780    -1.9140    -1.3540 ha         1 MVG       0.095500
     31 H4          -3.5450     1.4840     2.2540 ha         1 MVG       0.130500
     32 H5          -1.6330     0.0600     1.7220 ha         1 MVG       0.095500
     33 H6          -2.5240    -3.5160    -1.3130 h4         1 MVG       0.035100
     34 H7           1.5670    -4.1410    -1.0210 h4         1 MVG       0.043100
     35 H8           1.4540     0.4390    -0.9400 ha         1 MVG       0.158000
     36 H9           4.8910    -2.7510     1.8790 h4         1 MVG       0.040800
     37 H10          5.9740    -0.0130     1.1890 ha         1 MVG       0.106000
     38 H11          5.3430     2.1060     0.0200 ha         1 MVG       0.109000
     39 H12          2.0780     2.5410    -1.6700 hn         1 MVG       0.487000
     40 H13          4.5750     3.9610    -1.0000 h1         1 MVG       0.051700
     41 H14          1.8500     4.9400    -2.0150 hc         1 MVG       0.042533
     42 H15          3.3300     5.9120    -1.8760 hc         1 MVG       0.042533
     43 H16          3.2680     4.5610    -3.0230 hc         1 MVG       0.042533
     44 H17          3.4320     5.4240     0.6710 hc         1 MVG       0.042533
     45 H18          1.9740     4.4120     0.5850 hc         1 MVG       0.042533
     46 H19          3.4860     3.7480     1.2420 hc         1 MVG       0.042533
@<TRIPOS>BOND
     1     1     2 1   
     2     2     3 1   
     3     2     4 1   
     4     4     5 ar  
     5     4     7 ar  
     6     5     6 ar  
     7     5    29 1   
     8     6     9 ar  
     9     6    30 1   
    10     7     8 ar  
    11     7    31 1   
    12     8     9 ar  
    13     8    32 1   
    14     9    10 1   
    15    10    11 ar  
    16    10    12 ar  
    17    11    15 ar  
    18    12    13 ar  
    19    12    33 1   
    20    13    14 ar  
    21    14    15 ar  
    22    14    34 1   
    23    15    16 1   
    24    16    17 1   
    25    16    19 1   
    26    17    18 ar  
    27    17    21 ar  
    28    18    24 ar  
    29    18    35 1   
    30    19    20 2   
    31    20    21 1   
    32    20    36 1   
    33    21    22 ar  
    34    22    23 ar  
    35    22    37 1   
    36    23    24 ar  
    37    23    38 1   
    38    24    25 1   
    39    25    26 1   
    40    25    39 1   
    41    26    27 1   
    42    26    28 1   
    43    26    40 1   
    44    27    41 1   
    45    27    42 1   
    46    27    43 1   
    47    28    44 1   
    48    28    45 1   
    49    28    46 1   
@<TRIPOS>SUBSTRUCTURE
     1 MVG         1 TEMP              0 ****  ****    0 ROOT
