@<TRIPOS>MOLECULE
MVH
   24    23     1     0     0
SMALL
No Charge or Current Charge


@<TRIPOS>ATOM
      1 OAI        -21.3700    33.7550    -6.1080 o          1 MVH      -0.823000
      2 PAN        -22.3060    34.8510    -5.7160 p5         1 MVH       1.410800
      3 OAJ        -22.6330    35.8010    -6.9760 os         1 MVH      -0.598400
      4 CAC        -21.5550    36.5030    -7.6010 c3         1 MVH       0.208900
      5 OAF        -21.8110    35.6560    -4.5590 o          1 MVH      -0.823000
      6 OAK        -23.8020    34.3030    -5.4730 os         1 MVH      -0.480500
      7 CAM        -24.2420    33.3740    -4.5780 c2         1 MVH       0.295900
      8 CAD        -25.6950    33.0400    -4.8520 c3         1 MVH      -0.077900
      9 CAG        -23.4760    32.8550    -3.5910 ce         1 MVH      -0.473200
     10 CAL        -23.9280    31.8910    -2.5680 c          1 MVH       0.639300
     11 OAE        -24.9120    31.1800    -2.6820 o          1 MVH      -0.673100
     12 NAH        -23.1720    31.9140    -1.4270 ns         1 MVH      -0.521900
     13 CAA        -23.4240    31.0830    -0.2500 c3         1 MVH       0.107300
     14 H2         -21.9340    37.1320    -8.4170 h1         1 MVH       0.014700
     15 H3         -21.0400    37.1530    -6.8820 h1         1 MVH       0.014700
     16 H4         -20.8240    35.8020    -8.0240 h1         1 MVH       0.014700
     17 H6         -26.3090    33.1970    -3.9580 hc         1 MVH       0.055367
     18 H7         -26.1160    33.6660    -5.6480 hc         1 MVH       0.055367
     19 H8         -25.8050    31.9960    -5.1640 hc         1 MVH       0.055367
     20 H9         -22.4630    33.2150    -3.4450 ha         1 MVH       0.203000
     21 H11        -22.3920    32.5580    -1.4090 hn         1 MVH       0.321500
     22 H12        -22.6640    31.2920     0.5130 h1         1 MVH       0.024367
     23 H13        -24.4180    31.3100     0.1560 h1         1 MVH       0.024367
     24 H14        -23.3760    30.0230    -0.5300 h1         1 MVH       0.024367
@<TRIPOS>BOND
     1     1     2 1   
     2     2     3 1   
     3     2     5 1   
     4     2     6 1   
     5     3     4 1   
     6     4    14 1   
     7     4    15 1   
     8     4    16 1   
     9     6     7 1   
    10     7     8 1   
    11     7     9 2   
    12     8    17 1   
    13     8    18 1   
    14     8    19 1   
    15     9    10 1   
    16     9    20 1   
    17    10    11 2   
    18    10    12 1   
    19    12    13 1   
    20    12    21 1   
    21    13    22 1   
    22    13    23 1   
    23    13    24 1   
@<TRIPOS>SUBSTRUCTURE
     1 MVH         1 TEMP              0 ****  ****    0 ROOT
