@<TRIPOS>MOLECULE
MVH
   24    23     1     0     0
SMALL
abcg2


@<TRIPOS>ATOM
      1 OAI        -21.2830    33.7710    -5.8700 o          1 MVH      -0.823000
      2 PAN        -22.2800    34.8500    -5.6090 p5         1 MVH       1.410800
      3 OAJ        -22.5960    35.6880    -6.9580 os         1 MVH      -0.598400
      4 CAC        -21.5140    36.3910    -7.5810 c3         1 MVH       0.208900
      5 OAF        -22.0940    35.7630    -4.4440 o          1 MVH      -0.823000
      6 OAK        -23.8040    34.1980    -5.5660 os         1 MVH      -0.480500
      7 CAM        -24.3030    33.3680    -4.6130 c2         1 MVH       0.295900
      8 CAD        -25.6970    32.9680    -4.9590 c3         1 MVH      -0.077900
      9 CAG        -23.5890    32.9970    -3.5340 ce         1 MVH      -0.473200
     10 CAL        -24.0370    32.1150    -2.4450 c          1 MVH       0.639300
     11 OAE        -25.1460    31.5650    -2.3590 o          1 MVH      -0.673100
     12 NAH        -23.1020    31.9290    -1.4800 ns         1 MVH      -0.521900
     13 CAA        -23.3460    31.1080    -0.3110 c3         1 MVH       0.107300
     14 H2         -21.9240    36.8890    -8.4580 h1         1 MVH       0.014700
     15 H3         -21.0940    37.1390    -6.9050 h1         1 MVH       0.014700
     16 H4         -20.7290    35.6980    -7.8910 h1         1 MVH       0.014700
     17 H6         -26.1140    32.3160    -4.2010 hc         1 MVH       0.055367
     18 H7         -26.3130    33.8650    -5.0640 hc         1 MVH       0.055367
     19 H8         -25.6960    32.4620    -5.9280 hc         1 MVH       0.055367
     20 H9         -22.5860    33.3880    -3.4340 ha         1 MVH       0.203000
     21 H11        -22.2130    32.3930    -1.5630 hn         1 MVH       0.321500
     22 H12        -22.4460    31.1050     0.2990 h1         1 MVH       0.024367
     23 H13        -24.1750    31.5000     0.2810 h1         1 MVH       0.024367
     24 H14        -23.5860    30.0820    -0.5950 h1         1 MVH       0.024367
@<TRIPOS>BOND
     1     1     2 1   
     2     2     3 1   
     3     2     5 1   
     4     2     6 1   
     5     3     4 1   
     6     4    14 1   
     7     4    15 1   
     8     4    16 1   
     9     6     7 1   
    10     7     8 1   
    11     7     9 2   
    12     8    17 1   
    13     8    18 1   
    14     8    19 1   
    15     9    10 1   
    16     9    20 1   
    17    10    11 2   
    18    10    12 1   
    19    12    13 1   
    20    12    21 1   
    21    13    22 1   
    22    13    23 1   
    23    13    24 1   
@<TRIPOS>SUBSTRUCTURE
     1 MVH         1 TEMP              0 ****  ****    0 ROOT
