@<TRIPOS>MOLECULE
MVJ
   44    47     1     0     0
SMALL
No Charge or Current Charge


@<TRIPOS>ATOM
      1 C1         -15.7980   -10.0410    12.2580 ca         1 MVJ      -0.073000
      2 C2         -14.5660   -10.2930    11.6240 ca         1 MVJ      -0.143000
      3 C3         -14.4650   -10.0060    10.2600 ca         1 MVJ      -0.033000
      4 C4         -15.5080    -9.4940     9.5160 ca         1 MVJ      -0.133300
      5 C5         -16.7430    -9.2400    10.1420 ca         1 MVJ      -0.054000
      6 C6         -16.8900    -9.5150    11.5230 ca         1 MVJ      -0.102300
      7 C7         -18.2270    -9.2480    12.2310 c6         1 MVJ      -0.014400
      8 C8         -18.6090    -7.7410    12.1950 c6         1 MVJ      -0.068400
      9 C9         -19.9470    -7.4780    12.9300 c6         1 MVJ      -0.074400
     10 C10        -21.0870    -8.3470    12.3460 c6         1 MVJ      -0.075400
     11 C11        -20.7160    -9.8500    12.3760 c6         1 MVJ      -0.074400
     12 C12        -19.3770   -10.1110    11.6410 c6         1 MVJ      -0.068400
     13 C13        -15.0580    -9.2960     8.0510 c5         1 MVJ      -0.076700
     14 C14        -15.1290    -7.7970     7.6090 c6         1 MVJ      -0.091400
     15 C15        -16.5580    -7.3210     7.2510 c6         1 MVJ       0.154600
     16 O16        -17.1430    -8.2030     6.2720 os         1 MVJ      -0.455000
     17 C17        -17.2860    -9.5650     6.7250 c6         1 MVJ       0.154600
     18 C18        -15.8970   -10.1640     7.0540 c6         1 MVJ      -0.091400
     19 C19        -13.5580    -9.7950     8.1030 c          1 MVJ       0.561000
     20 O20        -12.7150    -9.8600     7.2160 o          1 MVJ      -0.529000
     21 N21        -13.3790   -10.1610     9.4170 ns         1 MVJ      -0.146000
     22 H1         -15.9030   -10.2560    13.3190 ha         1 MVJ       0.115000
     23 H2         -13.7220   -10.6960    12.1790 ha         1 MVJ       0.123000
     24 H5         -17.5790    -8.8380     9.5830 ha         1 MVJ       0.118000
     25 H7         -18.1170    -9.5300    13.2880 hc         1 MVJ       0.049700
     26 H8         -17.8110    -7.1450    12.6590 hc         1 MVJ       0.040950
     27 H8A        -18.6920    -7.3940    11.1560 hc         1 MVJ       0.040950
     28 H9         -19.8290    -7.6930    14.0020 hc         1 MVJ       0.039950
     29 H9A        -20.2120    -6.4150    12.8530 hc         1 MVJ       0.039950
     30 H10        -22.0130    -8.1800    12.9140 hc         1 MVJ       0.039200
     31 H10A       -21.2950    -8.0380    11.3120 hc         1 MVJ       0.039200
     32 H11        -20.6400   -10.1930    13.4170 hc         1 MVJ       0.039950
     33 H11A       -21.5170   -10.4410    11.9110 hc         1 MVJ       0.039950
     34 H12        -19.5030    -9.8970    10.5710 hc         1 MVJ       0.040950
     35 H12A       -19.1170   -11.1760    11.7160 hc         1 MVJ       0.040950
     36 H14        -14.7100    -7.1530     8.3940 hc         1 MVJ       0.065950
     37 H14A       -14.4910    -7.6510     6.7260 hc         1 MVJ       0.065950
     38 H15        -17.1980    -7.2790     8.1420 h1         1 MVJ       0.047200
     39 H15A       -16.5130    -6.3060     6.8290 h1         1 MVJ       0.047200
     40 H17        -17.9490    -9.5970     7.5990 h1         1 MVJ       0.047200
     41 H17A       -17.7610   -10.1540     5.9280 h1         1 MVJ       0.047200
     42 H18        -15.3410   -10.2700     6.1130 hc         1 MVJ       0.065950
     43 H18A       -16.0160   -11.1820     7.4500 hc         1 MVJ       0.065950
     44 HN21       -12.4960   -10.5250     9.7510 hn         1 MVJ       0.174000
@<TRIPOS>BOND
     1     1     2 ar  
     2     1     6 ar  
     3     1    22 1   
     4     2     3 ar  
     5     2    23 1   
     6     3     4 ar  
     7     3    21 1   
     8     4     5 ar  
     9     4    13 1   
    10     5     6 ar  
    11     5    24 1   
    12     6     7 1   
    13     7     8 1   
    14     7    12 1   
    15     7    25 1   
    16     8     9 1   
    17     8    26 1   
    18     8    27 1   
    19     9    10 1   
    20     9    28 1   
    21     9    29 1   
    22    10    11 1   
    23    10    30 1   
    24    10    31 1   
    25    11    12 1   
    26    11    32 1   
    27    11    33 1   
    28    12    34 1   
    29    12    35 1   
    30    13    14 1   
    31    13    18 1   
    32    13    19 1   
    33    14    15 1   
    34    14    36 1   
    35    14    37 1   
    36    15    16 1   
    37    15    38 1   
    38    15    39 1   
    39    16    17 1   
    40    17    18 1   
    41    17    40 1   
    42    17    41 1   
    43    18    42 1   
    44    18    43 1   
    45    19    20 2   
    46    19    21 1   
    47    21    44 1   
@<TRIPOS>SUBSTRUCTURE
     1 MVJ         1 TEMP              0 ****  ****    0 ROOT
