@<TRIPOS>MOLECULE
MVJ
   44    47     1     0     0
SMALL
abcg2


@<TRIPOS>ATOM
      1 C1         -15.8410   -10.0410    12.2260 ca         1 MVJ      -0.073000
      2 C2         -14.6160   -10.2990    11.6070 ca         1 MVJ      -0.143000
      3 C3         -14.5060   -10.0080    10.2610 ca         1 MVJ      -0.033000
      4 C4         -15.5710    -9.4780     9.5210 ca         1 MVJ      -0.133300
      5 C5         -16.7740    -9.2340    10.1580 ca         1 MVJ      -0.054000
      6 C6         -16.9240    -9.5120    11.5270 ca         1 MVJ      -0.102300
      7 C7         -18.2340    -9.2420    12.2300 c6         1 MVJ      -0.014400
      8 C8         -18.6230    -7.7540    12.1870 c6         1 MVJ      -0.068400
      9 C9         -19.9360    -7.4910    12.9270 c6         1 MVJ      -0.074400
     10 C10        -21.0690    -8.3630    12.3820 c6         1 MVJ      -0.075400
     11 C11        -20.6920    -9.8450    12.4210 c6         1 MVJ      -0.074400
     12 C12        -19.3800   -10.1090    11.6800 c6         1 MVJ      -0.068400
     13 C13        -15.1110    -9.2820     8.0880 c5         1 MVJ      -0.076700
     14 C14        -15.1210    -7.8110     7.6130 c6         1 MVJ      -0.091400
     15 C15        -16.5130    -7.3510     7.2080 c6         1 MVJ       0.154600
     16 O16        -17.0800    -8.2010     6.2120 os         1 MVJ      -0.455000
     17 C17        -17.2150    -9.5430     6.6780 c6         1 MVJ       0.154600
     18 C18        -15.8690   -10.1450     7.0540 c6         1 MVJ      -0.091400
     19 C19        -13.6460    -9.7680     8.1530 c          1 MVJ       0.561000
     20 O20        -12.8490    -9.7920     7.2270 o          1 MVJ      -0.529000
     21 N21        -13.3930   -10.1680     9.4280 ns         1 MVJ      -0.146000
     22 H1         -15.9530   -10.2590    13.2820 ha         1 MVJ       0.115000
     23 H2         -13.7830   -10.7090    12.1620 ha         1 MVJ       0.123000
     24 H5         -17.6110    -8.8230     9.6120 ha         1 MVJ       0.118000
     25 H7         -18.0980    -9.5130    13.2830 hc         1 MVJ       0.049700
     26 H8         -17.8160    -7.1550    12.6160 hc         1 MVJ       0.040950
     27 H8A        -18.7280    -7.4420    11.1420 hc         1 MVJ       0.040950
     28 H9         -19.7960    -7.7070    13.9920 hc         1 MVJ       0.039950
     29 H9A        -20.2010    -6.4330    12.8520 hc         1 MVJ       0.039950
     30 H10        -21.9860    -8.1900    12.9520 hc         1 MVJ       0.039200
     31 H10A       -21.2790    -8.0730    11.3460 hc         1 MVJ       0.039200
     32 H11        -20.5840   -10.1620    13.4650 hc         1 MVJ       0.039950
     33 H11A       -21.4930   -10.4520    11.9890 hc         1 MVJ       0.039950
     34 H12        -19.5140    -9.8890    10.6160 hc         1 MVJ       0.040950
     35 H12A       -19.1060   -11.1640    11.7540 hc         1 MVJ       0.040950
     36 H14        -14.7300    -7.1600     8.3970 hc         1 MVJ       0.065950
     37 H14A       -14.4590    -7.7330     6.7480 hc         1 MVJ       0.065950
     38 H15        -17.1810    -7.3050     8.0760 h1         1 MVJ       0.047200
     39 H15A       -16.4660    -6.3540     6.7680 h1         1 MVJ       0.047200
     40 H17        -17.9090    -9.5700     7.5260 h1         1 MVJ       0.047200
     41 H17A       -17.6620   -10.1070     5.8600 h1         1 MVJ       0.047200
     42 H18        -15.2510   -10.2130     6.1560 hc         1 MVJ       0.065950
     43 H18A       -16.0130   -11.1560     7.4410 hc         1 MVJ       0.065950
     44 HN21       -12.4990   -10.5280     9.7270 hn         1 MVJ       0.174000
@<TRIPOS>BOND
     1     1     2 ar  
     2     1     6 ar  
     3     1    22 1   
     4     2     3 ar  
     5     2    23 1   
     6     3     4 ar  
     7     3    21 1   
     8     4     5 ar  
     9     4    13 1   
    10     5     6 ar  
    11     5    24 1   
    12     6     7 1   
    13     7     8 1   
    14     7    12 1   
    15     7    25 1   
    16     8     9 1   
    17     8    26 1   
    18     8    27 1   
    19     9    10 1   
    20     9    28 1   
    21     9    29 1   
    22    10    11 1   
    23    10    30 1   
    24    10    31 1   
    25    11    12 1   
    26    11    32 1   
    27    11    33 1   
    28    12    34 1   
    29    12    35 1   
    30    13    14 1   
    31    13    18 1   
    32    13    19 1   
    33    14    15 1   
    34    14    36 1   
    35    14    37 1   
    36    15    16 1   
    37    15    38 1   
    38    15    39 1   
    39    16    17 1   
    40    17    18 1   
    41    17    40 1   
    42    17    41 1   
    43    18    42 1   
    44    18    43 1   
    45    19    20 2   
    46    19    21 1   
    47    21    44 1   
@<TRIPOS>SUBSTRUCTURE
     1 MVJ         1 TEMP              0 ****  ****    0 ROOT
