@<TRIPOS>MOLECULE
MVK
   52    55     1     0     0
SMALL
bcc


@<TRIPOS>ATOM
      1 C1          -1.7370    -1.4800     0.8660 ca         1 MVK      -0.073300
      2 C2          -2.8770    -2.2380     1.2030 ca         1 MVK      -0.107000
      3 C3          -4.0890    -2.1300     0.5450 ca         1 MVK      -0.109300
      4 C11         -3.4370     0.4050    -1.9540 cc         1 MVK      -0.186200
      5 C12         -4.7470     0.1050    -2.1920 cd         1 MVK      -0.132100
      6 C14         -1.4030     2.2290     0.5320 c6         1 MVK       0.162800
      7 C15         -1.1240     3.3230     1.5480 c6         1 MVK      -0.074400
      8 C16          0.1170     4.1100     1.1600 c6         1 MVK      -0.076400
      9 C17          1.2750     3.1490     0.9510 c6         1 MVK      -0.070400
     10 C18          0.9230     2.0470    -0.0540 c6         1 MVK       0.233800
     11 C19          2.1090     1.1300    -0.2310 ca         1 MVK      -0.128300
     12 C20          2.8220     1.1230    -1.4240 ca         1 MVK      -0.149500
     13 C21          3.9340     0.3070    -1.5870 ca         1 MVK      -0.111500
     14 C22          4.3610    -0.5310    -0.5620 ca         1 MVK      -0.126600
     15 C23          3.6450    -0.5210     0.6340 ca         1 MVK      -0.111500
     16 C24          2.5390     0.2980     0.8000 ca         1 MVK      -0.149500
     17 C25          5.5750    -1.4320    -0.7450 c          1 MVK       0.922200
     18 C4          -4.1280    -1.2030    -0.4980 ca         1 MVK      -0.052200
     19 C5          -3.0110    -0.4260    -0.8680 ca         1 MVK      -0.091800
     20 C6          -1.7950    -0.5630    -0.1770 ca         1 MVK      -0.026300
     21 C7          -5.2920    -2.9400     0.9190 c3         1 MVK      -0.034800
     22 C8          -0.5980     0.2580    -0.5770 c3         1 MVK       0.205100
     23 N9          -0.2750     1.3240     0.3690 n3         1 MVK      -0.702600
     24 C10         -0.4670    -1.6900     1.6440 c3         1 MVK      -0.050800
     25 N13         -5.1650    -0.8580    -1.3210 na         1 MVK      -0.181400
     26 O26          6.1550    -1.3720    -1.8460 o          1 MVK      -0.826300
     27 O27          5.8850    -2.1550     0.2220 o          1 MVK      -0.826300
     28 H1          -2.7980    -2.9460     2.0210 ha         1 MVK       0.122000
     29 H2          -2.8490     1.1330    -2.4890 ha         1 MVK       0.154000
     30 H3          -5.4260     0.5130    -2.9250 h4         1 MVK       0.151000
     31 H4          -2.2690     1.6520     0.8550 h1         1 MVK       0.027700
     32 H5          -1.6770     2.6950    -0.4340 h1         1 MVK       0.027700
     33 H6          -1.9980     3.9740     1.6170 hc         1 MVK       0.037200
     34 H7          -0.9840     2.8720     2.5350 hc         1 MVK       0.037200
     35 H8          -0.0740     4.6630     0.2340 hc         1 MVK       0.029700
     36 H9           0.3660     4.8520     1.9220 hc         1 MVK       0.029700
     37 H10          2.1610     3.6760     0.5900 hc         1 MVK       0.051200
     38 H11          1.5460     2.6870     1.9050 hc         1 MVK       0.051200
     39 H12          0.7380     2.5380    -1.0290 h1         1 MVK       0.013700
     40 H13          2.5020     1.7620    -2.2400 ha         1 MVK       0.107000
     41 H14          4.4730     0.3160    -2.5250 ha         1 MVK       0.144500
     42 H15          3.9610    -1.1650     1.4450 ha         1 MVK       0.144500
     43 H16          1.9960     0.2840     1.7370 ha         1 MVK       0.107000
     44 H17         -6.1010    -2.3090     1.2940 hc         1 MVK       0.032367
     45 H18         -5.6880    -3.4920     0.0630 hc         1 MVK       0.032367
     46 H19         -5.0540    -3.6650     1.6960 hc         1 MVK       0.032367
     47 H20          0.2680    -0.4020    -0.6530 h1         1 MVK       0.052700
     48 H21         -0.7590     0.6660    -1.5890 h1         1 MVK       0.052700
     49 H23          0.3180    -2.1340     1.0270 hc         1 MVK       0.050033
     50 H24         -0.0720    -0.7480     2.0200 hc         1 MVK       0.050033
     51 H25         -0.6290    -2.3580     2.4890 hc         1 MVK       0.050033
     52 H26         -6.0930    -1.2460    -1.2970 hn         1 MVK       0.289700
@<TRIPOS>BOND
     1     1     2 ar  
     2     1    20 ar  
     3     1    24 1   
     4     2     3 ar  
     5     2    28 1   
     6     3    18 ar  
     7     3    21 1   
     8     4     5 2   
     9     4    19 1   
    10     4    29 1   
    11     5    25 1   
    12     5    30 1   
    13     6     7 1   
    14     6    23 1   
    15     6    31 1   
    16     6    32 1   
    17     7     8 1   
    18     7    33 1   
    19     7    34 1   
    20     8     9 1   
    21     8    35 1   
    22     8    36 1   
    23     9    10 1   
    24     9    37 1   
    25     9    38 1   
    26    10    11 1   
    27    10    23 1   
    28    10    39 1   
    29    11    12 ar  
    30    11    16 ar  
    31    12    13 ar  
    32    12    40 1   
    33    13    14 ar  
    34    13    41 1   
    35    14    15 ar  
    36    14    17 1   
    37    15    16 ar  
    38    15    42 1   
    39    16    43 1   
    40    17    26 1   
    41    17    27 1   
    42    18    19 ar  
    43    18    25 1   
    44    19    20 ar  
    45    20    22 1   
    46    21    44 1   
    47    21    45 1   
    48    21    46 1   
    49    22    23 1   
    50    22    47 1   
    51    22    48 1   
    52    24    49 1   
    53    24    50 1   
    54    24    51 1   
    55    25    52 1   
@<TRIPOS>SUBSTRUCTURE
     1 MVK         1 TEMP              0 ****  ****    0 ROOT
