@<TRIPOS>MOLECULE
MVK
   52    55     1     0     0
SMALL
No Charge or Current Charge


@<TRIPOS>ATOM
      1 C1          -1.7270    -1.5630     0.8490 ca         1 MVK      -0.073300
      2 C2          -2.8640    -2.3380     1.1930 ca         1 MVK      -0.089000
      3 C3          -4.0940    -2.1720     0.5200 ca         1 MVK      -0.109300
      4 C11         -3.4700     0.4120    -1.9020 cc         1 MVK      -0.236200
      5 C12         -4.8070     0.1450    -2.1640 cd         1 MVK      -0.182100
      6 C14         -1.4480     2.3210     0.4770 c6         1 MVK       0.162800
      7 C15         -1.1660     3.4280     1.5200 c6         1 MVK      -0.074400
      8 C16          0.1190     4.2030     1.1650 c6         1 MVK      -0.076400
      9 C17          1.2940     3.2150     0.9970 c6         1 MVK      -0.070400
     10 C18          0.9610     2.1000    -0.0350 c6         1 MVK       0.233800
     11 C19          2.1710     1.1630    -0.2090 ca         1 MVK      -0.128300
     12 C20          2.8350     1.0870    -1.4470 ca         1 MVK      -0.131500
     13 C21          3.9340     0.2280    -1.6190 ca         1 MVK      -0.093500
     14 C22          4.3950    -0.5810    -0.5530 ca         1 MVK      -0.126600
     15 C23          3.7200    -0.5020     0.6880 ca         1 MVK      -0.093500
     16 C24          2.6230     0.3590     0.8570 ca         1 MVK      -0.131500
     17 C25          5.5840    -1.5130    -0.7370 c          1 MVK       0.711600
     18 C4          -4.1520    -1.2120    -0.5010 ca         1 MVK      -0.052200
     19 C5          -3.0600    -0.4610    -0.8390 ca         1 MVK      -0.091800
     20 C6          -1.8160    -0.5970    -0.1910 ca         1 MVK      -0.026300
     21 C7          -5.3130    -3.0060     0.8950 c3         1 MVK      -0.034800
     22 C8          -0.6140     0.2600    -0.6060 c3         1 MVK       0.205100
     23 N9          -0.3000     1.3790     0.3290 n3         1 MVK      -0.702600
     24 C10         -0.4240    -1.7820     1.6130 c3         1 MVK      -0.050800
     25 N13         -5.2450    -0.8770    -1.2890 na         1 MVK      -0.231700
     26 O26          6.1340    -1.5530    -1.8300 o          1 MVK      -0.721000
     27 O27          5.9520    -2.1900     0.2130 o          1 MVK      -0.721000
     28 H1          -2.7900    -3.0740     1.9910 ha         1 MVK       0.104000
     29 H2          -2.8680     1.1570    -2.4180 ha         1 MVK       0.204000
     30 H3          -5.4710     0.6000    -2.8960 h4         1 MVK       0.201000
     31 H4          -2.3520     1.7820     0.7930 h1         1 MVK       0.027700
     32 H5          -1.6760     2.7930    -0.4910 h1         1 MVK       0.027700
     33 H6          -2.0190     4.1180     1.5700 hc         1 MVK       0.037200
     34 H7          -1.0670     2.9770     2.5170 hc         1 MVK       0.037200
     35 H8          -0.0300     4.7660     0.2340 hc         1 MVK       0.029700
     36 H9           0.3500     4.9370     1.9490 hc         1 MVK       0.029700
     37 H10          2.1920     3.7600     0.6770 hc         1 MVK       0.051200
     38 H11          1.5330     2.7650     1.9700 hc         1 MVK       0.051200
     39 H12          0.7970     2.6010    -1.0020 h1         1 MVK       0.013700
     40 H13          2.5000     1.6960    -2.2840 ha         1 MVK       0.089000
     41 H14          4.4280     0.1920    -2.5870 ha         1 MVK       0.126500
     42 H15          4.0440    -1.1120     1.5290 ha         1 MVK       0.126500
     43 H16          2.1160     0.3970     1.8180 ha         1 MVK       0.089000
     44 H17         -6.1390    -2.3660     1.2260 hc         1 MVK       0.032367
     45 H18         -5.6640    -3.5940     0.0390 hc         1 MVK       0.032367
     46 H19         -5.0910    -3.7070     1.7090 hc         1 MVK       0.032367
     47 H20          0.2470    -0.4150    -0.6980 h1         1 MVK       0.052700
     48 H21         -0.7850     0.6580    -1.6140 h1         1 MVK       0.052700
     49 H23          0.3880    -2.0810     0.9400 hc         1 MVK       0.050033
     50 H24         -0.1130    -0.8660     2.1300 hc         1 MVK       0.050033
     51 H25         -0.5210    -2.5660     2.3730 hc         1 MVK       0.050033
     52 H26         -6.1740    -1.2840    -1.2420 hn         1 MVK       0.340000
@<TRIPOS>BOND
     1     1     2 ar  
     2     1    20 ar  
     3     1    24 1   
     4     2     3 ar  
     5     2    28 1   
     6     3    18 ar  
     7     3    21 1   
     8     4     5 2   
     9     4    19 1   
    10     4    29 1   
    11     5    25 1   
    12     5    30 1   
    13     6     7 1   
    14     6    23 1   
    15     6    31 1   
    16     6    32 1   
    17     7     8 1   
    18     7    33 1   
    19     7    34 1   
    20     8     9 1   
    21     8    35 1   
    22     8    36 1   
    23     9    10 1   
    24     9    37 1   
    25     9    38 1   
    26    10    11 1   
    27    10    23 1   
    28    10    39 1   
    29    11    12 ar  
    30    11    16 ar  
    31    12    13 ar  
    32    12    40 1   
    33    13    14 ar  
    34    13    41 1   
    35    14    15 ar  
    36    14    17 1   
    37    15    16 ar  
    38    15    42 1   
    39    16    43 1   
    40    17    26 1   
    41    17    27 1   
    42    18    19 ar  
    43    18    25 1   
    44    19    20 ar  
    45    20    22 1   
    46    21    44 1   
    47    21    45 1   
    48    21    46 1   
    49    22    23 1   
    50    22    47 1   
    51    22    48 1   
    52    24    49 1   
    53    24    50 1   
    54    24    51 1   
    55    25    52 1   
@<TRIPOS>SUBSTRUCTURE
     1 MVK         1 TEMP              0 ****  ****    0 ROOT
