@<TRIPOS>MOLECULE
MVL
   26    27     1     0     0
SMALL
bcc


@<TRIPOS>ATOM
      1 C1           0.2240     1.4250     0.1730 cc         1 MVL       0.335800
      2 N10          0.9990     0.3150     0.2270 na         1 MVL      -0.172900
      3 C3          -1.7420     0.0200     0.5430 c6         1 MVL       0.117100
      4 C4          -0.9650    -1.1220    -0.1080 c6         1 MVL       0.142100
      5 C5           0.5230    -1.0660     0.2500 c6         1 MVL       0.053000
      6 C6           1.3210    -1.9560    -0.6920 c3         1 MVL       0.129400
      7 C7           2.2320     2.1050     0.3470 cd         1 MVL       0.285200
      8 C8           2.2950     0.7420     0.3490 cc         1 MVL      -0.235600
      9 N1           0.9380     2.5200     0.2400 nd         1 MVL      -0.668000
     10 O3          -3.1040    -0.2010     0.2840 oh         1 MVL      -0.586800
     11 O2          -1.6290     1.4530    -1.3570 oh         1 MVL      -0.581800
     12 O4          -1.4240    -2.3710     0.3410 oh         1 MVL      -0.600800
     13 C2          -1.2570     1.3590    -0.0010 c6         1 MVL       0.105800
     14 O6           2.5830    -2.2280    -0.1310 oh         1 MVL      -0.602800
     15 H2          -1.7030     2.1740     0.5840 h1         1 MVL       0.061700
     16 H5           0.6320    -1.4410     1.2740 h1         1 MVL       0.092700
     17 H8           3.1240     0.0620     0.4290 h4         1 MVL       0.191000
     18 H3          -1.5380     0.0050     1.6230 h1         1 MVL       0.053700
     19 H4          -1.0690    -1.0360    -1.2000 h1         1 MVL       0.071700
     20 HA          -3.6250     0.2200     0.9730 ho         1 MVL       0.415000
     21 HB          -2.3710    -2.4150     0.1660 ho         1 MVL       0.432000
     22 H6C1         0.7540    -2.8790    -0.8500 h1         1 MVL       0.044200
     23 H6C2         1.4010    -1.4530    -1.6640 h1         1 MVL       0.044200
     24 H6           3.1320    -2.6340    -0.8080 ho         1 MVL       0.414000
     25 H7           3.0530     2.8020     0.4250 h4         1 MVL       0.039100
     26 HC          -1.3400     2.3090    -1.6890 ho         1 MVL       0.420000
@<TRIPOS>BOND
     1     1     2 1   
     2     1     9 2   
     3     1    13 1   
     4     2     5 1   
     5     2     8 1   
     6     3     4 1   
     7     3    10 1   
     8     3    13 1   
     9     3    18 1   
    10     4     5 1   
    11     4    12 1   
    12     4    19 1   
    13     5     6 1   
    14     5    16 1   
    15     6    14 1   
    16     6    22 1   
    17     6    23 1   
    18     7     8 2   
    19     7     9 1   
    20     7    25 1   
    21     8    17 1   
    22    10    20 1   
    23    11    13 1   
    24    11    26 1   
    25    12    21 1   
    26    13    15 1   
    27    14    24 1   
@<TRIPOS>SUBSTRUCTURE
     1 MVL         1 TEMP              0 ****  ****    0 ROOT
