@<TRIPOS>MOLECULE
MVL
   26    27     1     0     0
SMALL
No Charge or Current Charge


@<TRIPOS>ATOM
      1 C1           0.1870     1.4470     0.2570 cc         1 MVL       0.335800
      2 N10          1.0230     0.3430     0.2330 na         1 MVL      -0.151500
      3 C3          -1.7700    -0.0810     0.6640 c6         1 MVL       0.140300
      4 C4          -0.9540    -1.1640    -0.1060 c6         1 MVL       0.165300
      5 C5           0.5700    -1.0810     0.2410 c6         1 MVL       0.082300
      6 C6           1.3980    -2.0230    -0.6940 c3         1 MVL       0.152600
      7 C7           2.2230     2.1750     0.2620 cd         1 MVL       0.219900
      8 C8           2.3220     0.8090     0.2650 cc         1 MVL      -0.203000
      9 N1           0.9000     2.5660     0.2520 nd         1 MVL      -0.668000
     10 O3          -3.1770    -0.2400     0.4060 oh         1 MVL      -0.649000
     11 O2          -1.8830     1.6750    -1.0580 oh         1 MVL      -0.704000
     12 O4          -1.4920    -2.4590     0.2170 oh         1 MVL      -0.723000
     13 C2          -1.3350     1.3530     0.2460 c6         1 MVL       0.129000
     14 O6           2.7200    -2.2940    -0.1960 oh         1 MVL      -0.665000
     15 H2          -1.7320     2.0540     0.9950 h1         1 MVL       0.061700
     16 H5           0.6940    -1.4540     1.2670 h1         1 MVL       0.092700
     17 H8           3.1950     0.1700     0.2830 h4         1 MVL       0.173000
     18 H3          -1.5720    -0.2010     1.7400 h1         1 MVL       0.053700
     19 H4          -1.0700    -0.9700    -1.1840 h1         1 MVL       0.071700
     20 HA          -3.3540     0.3970    -0.3280 ho         1 MVL       0.454000
     21 HB          -2.4590    -2.2960     0.3470 ho         1 MVL       0.531000
     22 H6C1         0.8550    -2.9710    -0.8030 h1         1 MVL       0.044200
     23 H6C2         1.4490    -1.5650    -1.6920 h1         1 MVL       0.044200
     24 H6           3.1480    -2.9110    -0.8320 ho         1 MVL       0.453000
     25 H7           3.0300     2.8980     0.2720 h4         1 MVL       0.039100
     26 HC          -1.4740     2.5340    -1.3280 ho         1 MVL       0.519000
@<TRIPOS>BOND
     1     1     2 1   
     2     1     9 2   
     3     1    13 1   
     4     2     5 1   
     5     2     8 1   
     6     3     4 1   
     7     3    10 1   
     8     3    13 1   
     9     3    18 1   
    10     4     5 1   
    11     4    12 1   
    12     4    19 1   
    13     5     6 1   
    14     5    16 1   
    15     6    14 1   
    16     6    22 1   
    17     6    23 1   
    18     7     8 2   
    19     7     9 1   
    20     7    25 1   
    21     8    17 1   
    22    10    20 1   
    23    11    13 1   
    24    11    26 1   
    25    12    21 1   
    26    13    15 1   
    27    14    24 1   
@<TRIPOS>SUBSTRUCTURE
     1 MVL         1 TEMP              0 ****  ****    0 ROOT
