@<TRIPOS>MOLECULE
MVM
   51    55     1     0     0
SMALL
No Charge or Current Charge


@<TRIPOS>ATOM
      1 C7         239.7450   205.8710   243.0480 c6         1 MVM      -0.071400
      2 C6         239.1530   208.5320   246.6230 ca         1 MVM       0.478900
      3 C13        240.4180   207.1900   250.3880 ca         1 MVM      -0.061000
      4 C20        238.1940   207.8600   256.8850 ca         1 MVM      -0.193000
      5 C8         237.3990   209.9600   246.0640 ca         1 MVM       0.351900
      6 C16        237.8870   208.3700   250.6550 ca         1 MVM      -0.110000
      7 C19        237.8440   209.1370   256.4060 ca         1 MVM       0.014000
      8 C22        238.4080   208.3380   254.2070 ca         1 MVM       0.354500
      9 C12        239.5550   207.2310   249.2710 ca         1 MVM      -0.145600
     10 C3         239.8510   206.8990   244.2030 c6         1 MVM      -0.088400
     11 C1         238.0210   205.5930   245.4190 c6         1 MVM       0.142800
     12 C2         239.8560   209.5980   247.2580 ca         1 MVM       0.063000
     13 N4         238.3830   208.9240   252.9690 na         1 MVM       0.042100
     14 C11        239.2930   210.8840   247.2500 ca         1 MVM      -0.058000
     15 C15        238.7660   208.3570   251.7540 ca         1 MVM       0.033800
     16 C14        240.0310   207.7570   251.6140 ca         1 MVM      -0.110000
     17 C10        238.0410   211.0640   246.6430 ca         1 MVM      -0.157000
     18 C4         238.3310   205.2400   242.9890 c6         1 MVM       0.155800
     19 C9         239.4350   206.2390   245.5520 c6         1 MVM       0.121700
     20 N1         239.5590   207.1540   246.7390 n          1 MVM      -0.416300
     21 N2         237.9590   204.6250   244.2870 n7         1 MVM      -0.863400
     22 N3         237.9300   208.7180   246.0680 nb         1 MVM      -0.679000
     23 N5         237.9500   210.2380   253.0330 nc         1 MVM      -0.141400
     24 N6         237.6850   210.5040   254.3090 nd         1 MVM      -0.203400
     25 N7         238.7500   207.1000   254.6410 nb         1 MVM      -0.656000
     26 O1         240.6850   205.5880   247.9860 o          1 MVM      -0.571100
     27 C17        238.2720   207.8040   249.4270 ca         1 MVM      -0.061000
     28 C18        237.9660   209.3450   255.0260 ca         1 MVM      -0.029600
     29 C21        238.6390   206.8760   255.9750 ca         1 MVM       0.375900
     30 Cl         241.4810   209.4080   247.9330 cl         1 MVM      -0.173000
     31 H1         240.4950   205.0800   243.1840 hc         1 MVM       0.050200
     32 H2         239.9740   206.3580   242.0910 hc         1 MVM       0.050200
     33 H4         238.1250   207.6270   257.9440 ha         1 MVM       0.132000
     34 H5         236.4220   210.0690   245.5930 h4         1 MVM       0.030100
     35 H6         236.8970   208.8110   250.7540 ha         1 MVM       0.142500
     36 H7         237.4950   209.9240   257.0720 ha         1 MVM       0.141000
     37 H8         240.8800   207.2780   244.2730 hc         1 MVM       0.048200
     38 H9         239.2120   207.7590   243.9670 hc         1 MVM       0.048200
     39 H10        237.2610   206.3720   245.2640 h1         1 MVM       0.047700
     40 H11        237.7710   205.0730   246.3550 h1         1 MVM       0.047700
     41 H12        239.8200   211.7240   247.6990 ha         1 MVM       0.139000
     42 H13        240.7180   207.7290   252.4570 ha         1 MVM       0.142500
     43 H14        237.5700   212.0430   246.6150 ha         1 MVM       0.134000
     44 H15        237.5950   206.0160   242.7290 h1         1 MVM       0.031200
     45 H16        238.3010   204.4760   242.1990 h1         1 MVM       0.031200
     46 H17        240.1330   205.4010   245.6880 h1         1 MVM       0.095700
     47 H18        237.0020   204.2540   244.2160 hn         1 MVM       0.415000
     48 H20        237.5550   207.7950   248.6100 ha         1 MVM       0.135500
     49 H21        238.9150   205.8820   256.3250 h4         1 MVM       0.029100
     50 C5         240.0070   206.6080   247.9640 c          1 MVM       0.627700
     51 H3         241.4020   206.7330   250.3000 ha         1 MVM       0.135500
@<TRIPOS>BOND
     1     1    10 1   
     2     1    18 1   
     3     1    31 1   
     4     1    32 1   
     5     2    12 ar  
     6     2    20 1   
     7     2    22 ar  
     8     3     9 ar  
     9     3    16 ar  
    10     3    51 1   
    11     4     7 ar  
    12     4    29 ar  
    13     4    33 1   
    14     5    17 ar  
    15     5    22 ar  
    16     5    34 1   
    17     6    15 ar  
    18     6    27 ar  
    19     6    35 1   
    20     7    28 ar  
    21     7    36 1   
    22     8    13 1   
    23     8    25 ar  
    24     8    28 ar  
    25     9    27 ar  
    26     9    50 1   
    27    10    19 1   
    28    10    37 1   
    29    10    38 1   
    30    11    19 1   
    31    11    21 1   
    32    11    39 1   
    33    11    40 1   
    34    12    14 ar  
    35    12    30 1   
    36    13    15 1   
    37    13    23 1   
    38    14    17 ar  
    39    14    41 1   
    40    15    16 ar  
    41    16    42 1   
    42    17    43 1   
    43    18    21 1   
    44    18    44 1   
    45    18    45 1   
    46    19    20 1   
    47    19    46 1   
    48    20    50 1   
    49    21    47 1   
    50    23    24 2   
    51    24    28 1   
    52    25    29 ar  
    53    26    50 2   
    54    27    48 1   
    55    29    49 1   
@<TRIPOS>SUBSTRUCTURE
     1 MVM         1 TEMP              0 ****  ****    0 ROOT
