@<TRIPOS>MOLECULE
MVM
   51    55     1     0     0
SMALL
abcg2


@<TRIPOS>ATOM
      1 C7         240.0670   206.2690   243.1710 c6         1 MVM      -0.071400
      2 C6         238.9070   208.3000   246.8330 ca         1 MVM       0.478900
      3 C13        239.9030   206.9010   250.3350 ca         1 MVM      -0.061000
      4 C20        238.8490   208.4100   256.8670 ca         1 MVM      -0.193000
      5 C8         237.4400   210.0060   246.3730 ca         1 MVM       0.351900
      6 C16        237.4230   208.1110   250.6920 ca         1 MVM      -0.110000
      7 C19        237.9940   209.3890   256.3960 ca         1 MVM       0.014000
      8 C22        238.4630   208.4640   254.2210 ca         1 MVM       0.354500
      9 C12        238.9860   206.9220   249.2870 ca         1 MVM      -0.145600
     10 C3         239.9180   207.0790   244.4620 c6         1 MVM      -0.088400
     11 C1         238.0350   205.5390   245.1050 c6         1 MVM       0.142800
     12 C2         239.8860   209.2170   247.2320 ca         1 MVM       0.063000
     13 N4         238.0510   208.7470   252.9450 na         1 MVM       0.042100
     14 C11        239.5900   210.5720   247.2350 ca         1 MVM      -0.058000
     15 C15        238.3670   208.1160   251.7170 ca         1 MVM       0.033800
     16 C14        239.6100   207.5120   251.5440 ca         1 MVM      -0.110000
     17 C10        238.3370   210.9760   246.8010 ca         1 MVM      -0.157000
     18 C4         238.7510   205.5980   242.7930 c6         1 MVM       0.155800
     19 C9         239.3450   206.1870   245.5610 c6         1 MVM       0.121700
     20 N1         239.1610   206.9030   246.8430 n          1 MVM      -0.416300
     21 N2         238.2920   204.7530   243.8990 n7         1 MVM      -0.863400
     22 N3         237.7190   208.7030   246.3970 nb         1 MVM      -0.679000
     23 N5         237.1900   209.8030   252.9790 nc         1 MVM      -0.141400
     24 N6         237.0330   210.2020   254.1950 nd         1 MVM      -0.203400
     25 N7         239.2820   207.5080   254.6550 nb         1 MVM      -0.656000
     26 O1         239.7290   205.0540   248.0400 o          1 MVM      -0.571100
     27 C17        237.7440   207.5280   249.4770 ca         1 MVM      -0.061000
     28 C18        237.7970   209.4090   255.0150 ca         1 MVM      -0.029600
     29 C21        239.4560   207.5040   255.9750 ca         1 MVM       0.375900
     30 CL         241.4740   208.6900   247.7040 cl         1 MVM      -0.173000
     31 H1         240.8340   205.5000   243.3040 hc         1 MVM       0.050200
     32 H2         240.3950   206.9230   242.3610 hc         1 MVM       0.050200
     33 H4         239.0600   208.3210   257.9240 ha         1 MVM       0.132000
     34 H5         236.4590   210.2830   246.0040 h4         1 MVM       0.030100
     35 H6         236.4520   208.5560   250.8480 ha         1 MVM       0.142500
     36 H7         237.5060   210.0950   257.0540 ha         1 MVM       0.141000
     37 H8         240.8800   207.4900   244.7740 hc         1 MVM       0.048200
     38 H9         239.2440   207.9190   244.2780 hc         1 MVM       0.048200
     39 H10        237.2910   206.3330   244.9410 h1         1 MVM       0.047700
     40 H11        237.6600   204.8810   245.8900 h1         1 MVM       0.047700
     41 H12        240.3320   211.2890   247.5580 ha         1 MVM       0.139000
     42 H13        240.3340   207.5220   252.3440 ha         1 MVM       0.142500
     43 H14        238.0670   212.0230   246.7850 ha         1 MVM       0.134000
     44 H15        238.0110   206.3760   242.5430 h1         1 MVM       0.031200
     45 H16        238.8820   204.9720   241.9090 h1         1 MVM       0.031200
     46 H17        240.0580   205.3920   245.7720 h1         1 MVM       0.095700
     47 H18        237.4460   204.2650   243.6300 hn         1 MVM       0.415000
     48 H20        237.0120   207.5290   248.6810 ha         1 MVM       0.135500
     49 H21        240.1170   206.7380   256.3640 h4         1 MVM       0.029100
     50 C5         239.3310   206.2160   248.0120 c          1 MVM       0.627700
     51 H3         240.8640   206.4240   250.1960 ha         1 MVM       0.135500
@<TRIPOS>BOND
     1     1    10 1   
     2     1    18 1   
     3     1    31 1   
     4     1    32 1   
     5     2    12 ar  
     6     2    20 1   
     7     2    22 ar  
     8     3     9 ar  
     9     3    16 ar  
    10     3    51 1   
    11     4     7 ar  
    12     4    29 ar  
    13     4    33 1   
    14     5    17 ar  
    15     5    22 ar  
    16     5    34 1   
    17     6    15 ar  
    18     6    27 ar  
    19     6    35 1   
    20     7    28 ar  
    21     7    36 1   
    22     8    13 1   
    23     8    25 ar  
    24     8    28 ar  
    25     9    27 ar  
    26     9    50 1   
    27    10    19 1   
    28    10    37 1   
    29    10    38 1   
    30    11    19 1   
    31    11    21 1   
    32    11    39 1   
    33    11    40 1   
    34    12    14 ar  
    35    12    30 1   
    36    13    15 1   
    37    13    23 1   
    38    14    17 ar  
    39    14    41 1   
    40    15    16 ar  
    41    16    42 1   
    42    17    43 1   
    43    18    21 1   
    44    18    44 1   
    45    18    45 1   
    46    19    20 1   
    47    19    46 1   
    48    20    50 1   
    49    21    47 1   
    50    23    24 2   
    51    24    28 1   
    52    25    29 ar  
    53    26    50 2   
    54    27    48 1   
    55    29    49 1   
@<TRIPOS>SUBSTRUCTURE
     1 MVM         1 TEMP              0 ****  ****    0 ROOT
