@<TRIPOS>MOLECULE
MVN
   21    22     1     0     0
SMALL
bcc


@<TRIPOS>ATOM
      1 C1          -0.4470    -1.9450    -0.0000 ca         1 MVN      -0.179000
      2 C2          -1.7730    -1.5770     0.0420 ca         1 MVN      -0.069000
      3 C3          -1.1410     0.7510     0.0420 ca         1 MVN      -0.064000
      4 C4           0.2120     0.3920    -0.0010 ca         1 MVN      -0.122800
      5 C5           0.5530    -0.9690    -0.0220 ca         1 MVN       0.103600
      6 C6          -2.1120    -0.2240     0.0620 ca         1 MVN      -0.013600
      7 C7           2.5600     0.9430    -0.0650 cc         1 MVN      -0.247200
      8 C8           1.2780     1.3690    -0.0220 cd         1 MVN       0.023600
      9 C9           2.9300    -0.4600    -0.0900 c          1 MVN       0.707700
     10 C10          0.9490     2.8260     0.0040 c3         1 MVN      -0.063900
     11 N11          1.8730    -1.3310    -0.0650 ns         1 MVN      -0.441100
     12 O12          4.0850    -0.8660    -0.1300 o          1 MVN      -0.622500
     13 CL1         -3.7840     0.2290     0.1140 cl         1 MVN      -0.104400
     14 H1          -0.1810    -2.9940    -0.0170 ha         1 MVN       0.143000
     15 H2          -2.5440    -2.3350     0.0580 ha         1 MVN       0.151000
     16 H3          -1.4260     1.7940     0.0590 ha         1 MVN       0.151000
     17 H11          2.0950    -2.3170    -0.0840 hn         1 MVN       0.328500
     18 H7           3.3750     1.6550    -0.0810 ha         1 MVN       0.159000
     19 H101         0.3990     3.0870     0.9100 hc         1 MVN       0.053033
     20 H102         1.8510     3.4320    -0.0280 hc         1 MVN       0.053033
     21 H103         0.3230     3.1040    -0.8450 hc         1 MVN       0.053033
@<TRIPOS>BOND
     1     1     2 ar  
     2     1     5 ar  
     3     1    14 1   
     4     2     6 ar  
     5     2    15 1   
     6     3     4 ar  
     7     3     6 ar  
     8     3    16 1   
     9     4     5 ar  
    10     4     8 1   
    11     5    11 1   
    12     6    13 1   
    13     7     8 2   
    14     7     9 1   
    15     7    18 1   
    16     8    10 1   
    17     9    11 1   
    18     9    12 2   
    19    10    19 1   
    20    10    20 1   
    21    10    21 1   
    22    11    17 1   
@<TRIPOS>SUBSTRUCTURE
     1 MVN         1 TEMP              0 ****  ****    0 ROOT
