@<TRIPOS>MOLECULE
MVN
   21    22     1     0     0
SMALL
No Charge or Current Charge


@<TRIPOS>ATOM
      1 C1          -0.4530    -1.9760    -0.0030 ca         1 MVN      -0.161000
      2 C2          -1.8100    -1.6100     0.0420 ca         1 MVN      -0.051000
      3 C3          -1.1720     0.7430     0.0460 ca         1 MVN      -0.046000
      4 C4           0.1940     0.3840     0.0010 ca         1 MVN      -0.122800
      5 C5           0.5380    -0.9810    -0.0230 ca         1 MVN       0.103600
      6 C6          -2.1650    -0.2520     0.0660 ca         1 MVN       0.078000
      7 C7           2.5860     0.9510    -0.0650 cc         1 MVN      -0.297200
      8 C8           1.2750     1.3940    -0.0210 cd         1 MVN       0.023600
      9 C9           2.9620    -0.4710    -0.0910 c          1 MVN       0.565200
     10 C10          0.9760     2.8740     0.0020 c3         1 MVN      -0.063900
     11 N11          1.8960    -1.3290    -0.0670 ns         1 MVN      -0.374100
     12 O12          4.1140    -0.8700    -0.1290 o          1 MVN      -0.547000
     13 Cl1         -3.8630     0.2070     0.1220 cl         1 MVN      -0.196000
     14 H1          -0.1770    -3.0270    -0.0210 ha         1 MVN       0.125000
     15 H2          -2.5820    -2.3750     0.0580 ha         1 MVN       0.133000
     16 H3          -1.4770     1.7860     0.0660 ha         1 MVN       0.133000
     17 H11          2.1210    -2.3150    -0.0840 hn         1 MVN       0.328500
     18 H7           3.4220     1.6390    -0.0840 ha         1 MVN       0.209000
     19 H101         0.4260     3.1490     0.9090 hc         1 MVN       0.053033
     20 H102         1.8930     3.4760    -0.0190 hc         1 MVN       0.053033
     21 H103         0.3720     3.1670    -0.8640 hc         1 MVN       0.053033
@<TRIPOS>BOND
     1     1     2 ar  
     2     1     5 ar  
     3     1    14 1   
     4     2     6 ar  
     5     2    15 1   
     6     3     4 ar  
     7     3     6 ar  
     8     3    16 1   
     9     4     5 ar  
    10     4     8 1   
    11     5    11 1   
    12     6    13 1   
    13     7     8 2   
    14     7     9 1   
    15     7    18 1   
    16     8    10 1   
    17     9    11 1   
    18     9    12 2   
    19    10    19 1   
    20    10    20 1   
    21    10    21 1   
    22    11    17 1   
@<TRIPOS>SUBSTRUCTURE
     1 MVN         1 TEMP              0 ****  ****    0 ROOT
