@<TRIPOS>MOLECULE
MVO
   55    57     1     0     0
SMALL
abcg2


@<TRIPOS>ATOM
      1 C23        -15.4010   -18.4430    -1.2600 c6         1 MVO      -0.121400
      2 C22        -15.5440   -16.9910    -0.8230 c6         1 MVO       0.153100
      3 C20        -14.8090   -17.4750     1.3330 c6         1 MVO       0.153100
      4 C26        -16.6070   -23.9010    -1.3230 c6         1 MVO      -0.093900
      5 C10        -15.5410   -19.4270    -0.0790 c6         1 MVO       0.196200
      6 C12        -17.4760   -20.2400     1.3150 ca         1 MVO       0.347000
      7 C13        -16.7980   -21.2920     1.9460 ca         1 MVO      -0.192500
      8 C14        -17.4680   -22.1640     2.7930 ca         1 MVO      -0.056000
      9 C15        -18.8190   -21.9970     3.0420 ca         1 MVO       0.058000
     10 C16        -19.5060   -20.9440     2.4550 ca         1 MVO      -0.056000
     11 C17        -18.8410   -20.0790     1.6090 ca         1 MVO      -0.192500
     12 C19        -14.5600   -18.9370     1.0060 c6         1 MVO      -0.121400
     13 C25        -15.5560   -22.8990    -1.7800 c6         1 MVO       0.100000
     14 C01        -22.2290   -24.3570    -3.3530 c3         1 MVO       0.021600
     15 C02        -20.7840   -24.7210    -3.0420 c          1 MVO       0.594100
     16 C04        -19.0350   -24.5190    -1.3390 c3         1 MVO       0.107000
     17 C05        -17.9850   -23.5520    -1.8780 c6         1 MVO      -0.086700
     18 C06        -18.3240   -22.1040    -1.5450 c6         1 MVO      -0.093900
     19 C07        -17.2110   -21.1550    -1.9680 c6         1 MVO       0.100000
     20 C09        -15.1210   -20.8380    -0.5750 c          1 MVO       0.597100
     21 N03        -20.3660   -24.2710    -1.8510 ns         1 MVO      -0.508900
     22 N08        -15.9350   -21.5470    -1.3860 n          1 MVO      -0.401800
     23 N11        -16.8980   -19.3870     0.4170 nu         1 MVO      -0.992200
     24 O21        -14.6430   -16.6500     0.1990 os         1 MVO      -0.442000
     25 O24        -14.0290   -21.2730    -0.2290 o          1 MVO      -0.606100
     26 O27        -20.1090   -25.4020    -3.7910 o          1 MVO      -0.570100
     27 CL18       -19.6570   -23.1010     4.0920 cl         1 MVO      -0.212000
     28 H232       -16.1290   -18.6470    -2.0460 hc         1 MVO       0.070450
     29 H231       -14.4110   -18.5870    -1.6990 hc         1 MVO       0.070450
     30 H221       -15.3340   -16.3380    -1.6730 h1         1 MVO       0.047200
     31 H222       -16.5780   -16.7810    -0.5120 h1         1 MVO       0.047200
     32 H202       -14.0880   -17.1370     2.0790 h1         1 MVO       0.047200
     33 H201       -15.8110   -17.3400     1.7640 h1         1 MVO       0.047200
     34 H261       -16.6380   -23.9130    -0.2280 hc         1 MVO       0.052200
     35 H262       -16.3080   -24.9010    -1.6460 hc         1 MVO       0.052200
     36 H131       -15.7440   -21.4640     1.7870 ha         1 MVO       0.122000
     37 H141       -16.9210   -22.9750     3.2540 ha         1 MVO       0.126000
     38 H161       -20.5600   -20.7970     2.6500 ha         1 MVO       0.126000
     39 H171       -19.3950   -19.2700     1.1460 ha         1 MVO       0.122000
     40 H192       -14.6530   -19.5250     1.9220 hc         1 MVO       0.070450
     41 H191       -13.5330   -19.0520     0.6600 hc         1 MVO       0.070450
     42 H252       -15.4630   -22.9300    -2.8710 h1         1 MVO       0.055450
     43 H251       -14.5840   -23.1400    -1.3620 h1         1 MVO       0.055450
     44 H011       -22.8860   -25.1510    -2.9990 h1         1 MVO       0.077200
     45 H1         -22.5320   -23.4260    -2.8770 h1         1 MVO       0.077200
     46 H041       -19.0830   -24.4370    -0.2510 h1         1 MVO       0.060200
     47 H042       -18.7490   -25.5470    -1.5690 h1         1 MVO       0.060200
     48 H051       -17.9440   -23.6560    -2.9690 hc         1 MVO       0.067700
     49 H062       -18.4970   -22.0050    -0.4690 hc         1 MVO       0.052200
     50 H061       -19.2440   -21.7970    -2.0480 hc         1 MVO       0.052200
     51 H072       -17.1020   -21.1850    -3.0580 h1         1 MVO       0.055450
     52 H071       -17.4730   -20.1390    -1.7060 h1         1 MVO       0.055450
     53 H031       -20.9650   -23.6570    -1.3210 hn         1 MVO       0.314500
     54 H111       -17.5150   -18.7000     0.0150 hn         1 MVO       0.488000
     55 CL1        -22.4720   -24.1860    -5.1070 cl         1 MVO      -0.226000
@<TRIPOS>BOND
     1     1     2 1   
     2     1     5 1   
     3     1    28 1   
     4     1    29 1   
     5     2    24 1   
     6     2    30 1   
     7     2    31 1   
     8     3    12 1   
     9     3    24 1   
    10     3    32 1   
    11     3    33 1   
    12     4    13 1   
    13     4    17 1   
    14     4    34 1   
    15     4    35 1   
    16     5    12 1   
    17     5    20 1   
    18     5    23 1   
    19     6     7 ar  
    20     6    11 ar  
    21     6    23 1   
    22     7     8 ar  
    23     7    36 1   
    24     8     9 ar  
    25     8    37 1   
    26     9    10 ar  
    27     9    27 1   
    28    10    11 ar  
    29    10    38 1   
    30    11    39 1   
    31    12    40 1   
    32    12    41 1   
    33    13    22 1   
    34    13    42 1   
    35    13    43 1   
    36    14    15 1   
    37    14    44 1   
    38    14    45 1   
    39    14    55 1   
    40    15    21 1   
    41    15    26 2   
    42    16    17 1   
    43    16    21 1   
    44    16    46 1   
    45    16    47 1   
    46    17    18 1   
    47    17    48 1   
    48    18    19 1   
    49    18    49 1   
    50    18    50 1   
    51    19    22 1   
    52    19    51 1   
    53    19    52 1   
    54    20    22 1   
    55    20    25 2   
    56    21    53 1   
    57    23    54 1   
@<TRIPOS>SUBSTRUCTURE
     1 MVO         1 TEMP              0 ****  ****    0 ROOT
