@<TRIPOS>MOLECULE
MVO
   55    57     1     0     0
SMALL
No Charge or Current Charge


@<TRIPOS>ATOM
      1 C23        -15.6610   -18.4620    -1.1340 c6         1 MVO      -0.121400
      2 C22        -15.4070   -16.9560    -0.8690 c6         1 MVO       0.153100
      3 C20        -14.0800   -17.4140     1.0780 c6         1 MVO       0.153100
      4 C26        -16.4300   -23.8880    -1.6560 c6         1 MVO      -0.093900
      5 C10        -15.5370   -19.3560     0.1530 c6         1 MVO       0.196200
      6 C12        -17.5310   -19.9700     1.6400 ca         1 MVO       0.347000
      7 C13        -17.0120   -20.9040     2.5500 ca         1 MVO      -0.192500
      8 C14        -17.8560   -21.8610     3.1430 ca         1 MVO      -0.056000
      9 C15        -19.2270   -21.8710     2.8350 ca         1 MVO       0.058000
     10 C16        -19.7550   -20.9190     1.9460 ca         1 MVO      -0.056000
     11 C17        -18.9050   -19.9660     1.3560 ca         1 MVO      -0.192500
     12 C19        -14.2280   -18.9410     0.9010 c6         1 MVO      -0.121400
     13 C25        -15.5560   -22.6700    -2.0390 c6         1 MVO       0.100000
     14 C01        -22.2640   -24.5390    -3.2750 c3         1 MVO       0.021600
     15 C02        -20.7510   -24.8040    -3.1880 c          1 MVO       0.594100
     16 C04        -18.8020   -24.8530    -1.5860 c3         1 MVO       0.107000
     17 C05        -17.9200   -23.6390    -2.0000 c6         1 MVO      -0.086700
     18 C06        -18.3850   -22.3150    -1.3370 c6         1 MVO      -0.093900
     19 C07        -17.4670   -21.1300    -1.7220 c6         1 MVO       0.100000
     20 C09        -15.4290   -20.9160    -0.2320 c          1 MVO       0.597100
     21 N03        -20.2200   -24.6850    -1.9190 ns         1 MVO      -0.508900
     22 N08        -16.0380   -21.4100    -1.4120 n          1 MVO      -0.401800
     23 N11        -16.7120   -19.0220     1.0300 nu         1 MVO      -0.992200
     24 O21        -14.1430   -16.7730    -0.2080 os         1 MVO      -0.442000
     25 O24        -14.8540   -21.7110     0.5090 o          1 MVO      -0.606100
     26 O27        -20.0610   -25.1010    -4.1550 o          1 MVO      -0.570100
     27 Cl18       -20.2840   -23.0700     3.5670 cl         1 MVO      -0.212000
     28 H232       -16.6410   -18.5580    -1.6110 hc         1 MVO       0.070450
     29 H231       -14.9290   -18.8040    -1.8780 hc         1 MVO       0.070450
     30 H221       -15.3930   -16.4070    -1.8220 h1         1 MVO       0.047200
     31 H222       -16.2070   -16.5300    -0.2470 h1         1 MVO       0.047200
     32 H202       -13.1120   -17.1830     1.5440 h1         1 MVO       0.047200
     33 H201       -14.8750   -17.0180     1.7270 h1         1 MVO       0.047200
     34 H261       -16.3210   -24.0880    -0.5820 hc         1 MVO       0.052200
     35 H262       -16.0640   -24.7810    -2.1810 hc         1 MVO       0.052200
     36 H131       -15.9560   -20.8910     2.7980 ha         1 MVO       0.122000
     37 H141       -17.4500   -22.5900     3.8400 ha         1 MVO       0.126000
     38 H161       -20.8170   -20.9230     1.7140 ha         1 MVO       0.126000
     39 H171       -19.3160   -19.2360     0.6650 ha         1 MVO       0.122000
     40 H192       -14.1840   -19.4250     1.8850 hc         1 MVO       0.070450
     41 H191       -13.3570   -19.3090     0.3430 hc         1 MVO       0.070450
     42 H252       -15.5680   -22.5450    -3.1320 h1         1 MVO       0.055450
     43 H251       -14.5110   -22.8590    -1.7530 h1         1 MVO       0.055450
     44 H011       -22.7840   -25.2690    -2.6430 h1         1 MVO       0.077200
     45 H1         -22.4650   -23.5310    -2.8950 h1         1 MVO       0.077200
     46 H041       -18.7150   -25.0050    -0.5010 h1         1 MVO       0.060200
     47 H042       -18.4250   -25.7580    -2.0810 h1         1 MVO       0.060200
     48 H051       -18.0120   -23.5370    -3.0910 hc         1 MVO       0.067700
     49 H062       -18.3870   -22.4310    -0.2450 hc         1 MVO       0.052200
     50 H061       -19.4180   -22.0790    -1.6280 hc         1 MVO       0.052200
     51 H072       -17.5660   -20.9200    -2.7970 h1         1 MVO       0.055450
     52 H071       -17.8210   -20.2450    -1.1810 h1         1 MVO       0.055450
     53 H031       -20.8640   -24.4440    -1.1740 hn         1 MVO       0.314500
     54 H111       -17.2280   -18.1860     0.7610 hn         1 MVO       0.488000
     55 Cl1        -22.9620   -24.6540    -4.9610 cl         1 MVO      -0.226000
@<TRIPOS>BOND
     1     1     2 1   
     2     1     5 1   
     3     1    28 1   
     4     1    29 1   
     5     2    24 1   
     6     2    30 1   
     7     2    31 1   
     8     3    12 1   
     9     3    24 1   
    10     3    32 1   
    11     3    33 1   
    12     4    13 1   
    13     4    17 1   
    14     4    34 1   
    15     4    35 1   
    16     5    12 1   
    17     5    20 1   
    18     5    23 1   
    19     6     7 ar  
    20     6    11 ar  
    21     6    23 1   
    22     7     8 ar  
    23     7    36 1   
    24     8     9 ar  
    25     8    37 1   
    26     9    10 ar  
    27     9    27 1   
    28    10    11 ar  
    29    10    38 1   
    30    11    39 1   
    31    12    40 1   
    32    12    41 1   
    33    13    22 1   
    34    13    42 1   
    35    13    43 1   
    36    14    15 1   
    37    14    44 1   
    38    14    45 1   
    39    14    55 1   
    40    15    21 1   
    41    15    26 2   
    42    16    17 1   
    43    16    21 1   
    44    16    46 1   
    45    16    47 1   
    46    17    18 1   
    47    17    48 1   
    48    18    19 1   
    49    18    49 1   
    50    18    50 1   
    51    19    22 1   
    52    19    51 1   
    53    19    52 1   
    54    20    22 1   
    55    20    25 2   
    56    21    53 1   
    57    23    54 1   
@<TRIPOS>SUBSTRUCTURE
     1 MVO         1 TEMP              0 ****  ****    0 ROOT
