@<TRIPOS>MOLECULE
MVQ
   59    63     1     0     0
SMALL
No Charge or Current Charge


@<TRIPOS>ATOM
      1 C2          -3.2810     2.0320    -0.0160 c          1 MVQ       0.573100
      2 C4          -4.5070     0.0380     0.9110 c3         1 MVQ       0.149300
      3 C5          -3.7160    -1.2590     0.7910 ca         1 MVQ      -0.117300
      4 C6          -2.3530    -1.2940     1.1520 ca         1 MVQ      -0.095500
      5 C7          -1.6120    -2.4810     1.0130 ca         1 MVQ      -0.112000
      6 C8          -2.2310    -3.6450     0.5220 ca         1 MVQ      -0.101000
      7 C11         -2.9950     2.6720    -1.4400 c5         1 MVQ       0.152500
      8 C12         -3.7800     4.0030    -1.6150 c5         1 MVQ      -0.076400
      9 C16         -0.5560     2.3390    -1.1540 cc         1 MVQ       0.739300
     10 C18          1.4680     1.7240    -0.4480 cd         1 MVQ       0.213500
     11 C19          0.9310     0.4900    -0.7360 cc         1 MVQ       0.044400
     12 C21          2.8220    -0.6470    -0.0290 cd         1 MVQ       0.493900
     13 N22          3.4970     0.5520     0.2600 n          1 MVQ      -0.321300
     14 C23          4.9020     0.5520     0.7620 c3         1 MVQ       0.065300
     15 C24          2.8570     1.8010     0.0910 c          1 MVQ       0.485500
     16 O25          3.4050     2.8640     0.3680 o          1 MVQ      -0.513000
     17 C27          2.5350    -3.1180     0.7240 c6         1 MVQ      -0.107900
     18 O29          3.8950    -4.8340    -0.3700 os         1 MVQ      -0.445000
     19 C30          4.8810    -3.8910    -0.8420 c6         1 MVQ       0.153100
     20 C31          4.2210    -2.5110    -1.0820 c6         1 MVQ      -0.107900
     21 O1          -2.7880     2.3430     1.0640 o          1 MVQ      -0.578100
     22 N3          -4.1430     0.9630    -0.1620 ns         1 MVQ      -0.504900
     23 C9          -3.5920    -3.6170     0.1670 ca         1 MVQ      -0.112000
     24 C10         -4.3310    -2.4270     0.2970 ca         1 MVQ      -0.095500
     25 C13         -2.9080     5.0210    -0.8220 c5         1 MVQ      -0.096400
     26 C14         -1.4540     4.6430    -1.2310 c5         1 MVQ       0.238800
     27 N15         -1.5870     3.1890    -1.5340 nh         1 MVQ      -0.768300
     28 N17          0.6050     2.7950    -0.7130 nd         1 MVQ      -0.673000
     29 N20          1.5870    -0.7010    -0.5380 nc         1 MVQ      -0.591100
     30 C26          3.5070    -2.0060     0.2080 c6         1 MVQ      -0.095000
     31 C28          3.2820    -4.4640     0.8840 c6         1 MVQ       0.153100
     32 S32         -0.6720     0.6080    -1.3820 ss         1 MVQ      -0.086400
     33 H1          -5.5840    -0.1710     0.8430 h1         1 MVQ       0.062200
     34 H2          -4.3220     0.5020     1.8910 h1         1 MVQ       0.062200
     35 H3          -1.8640    -0.3980     1.5310 ha         1 MVQ       0.115500
     36 H4          -0.5570    -2.4980     1.2820 ha         1 MVQ       0.115500
     37 H5          -1.6580    -4.5640     0.4170 ha         1 MVQ       0.115000
     38 H6          -3.2320     1.9500    -2.2340 h1         1 MVQ       0.068700
     39 H7          -3.8390     4.2800    -2.6750 hc         1 MVQ       0.059700
     40 H8          -4.8090     3.9410    -1.2390 hc         1 MVQ       0.059700
     41 H9           5.5160    -0.1450     0.1780 h1         1 MVQ       0.058033
     42 H10          5.3680     1.5410     0.6770 h1         1 MVQ       0.058033
     43 H11          4.9170     0.2490     1.8170 h1         1 MVQ       0.058033
     44 H12          2.0920    -2.8220     1.6850 hc         1 MVQ       0.064200
     45 H13          1.7010    -3.2670     0.0240 hc         1 MVQ       0.064200
     46 H14          5.6880    -3.8070    -0.0990 h1         1 MVQ       0.044950
     47 H15          5.3150    -4.2680    -1.7790 h1         1 MVQ       0.044950
     48 H16          4.9840    -1.7910    -1.4080 hc         1 MVQ       0.064200
     49 H17          3.4980    -2.5930    -1.9060 hc         1 MVQ       0.064200
     50 H18         -4.4920     0.7690    -1.0940 hn         1 MVQ       0.317500
     51 H19         -4.0730    -4.5170    -0.2140 ha         1 MVQ       0.115500
     52 H20         -5.3820    -2.4150     0.0100 ha         1 MVQ       0.115500
     53 H21         -3.1460     6.0610    -1.0710 hc         1 MVQ       0.064200
     54 H22         -3.0500     4.9120     0.2600 hc         1 MVQ       0.064200
     55 H23         -1.1370     5.1960    -2.1280 h1         1 MVQ       0.065200
     56 H24         -0.7490     4.8800    -0.4210 h1         1 MVQ       0.065200
     57 H25          4.2660    -1.9070     0.9940 hc         1 MVQ       0.059700
     58 H26          4.0580    -4.3830     1.6600 h1         1 MVQ       0.044950
     59 H27          2.5770    -5.2520     1.1850 h1         1 MVQ       0.044950
@<TRIPOS>BOND
     1     1     7 1   
     2     1    21 2   
     3     1    22 1   
     4     2     3 1   
     5     2    22 1   
     6     2    33 1   
     7     2    34 1   
     8     3     4 ar  
     9     3    24 ar  
    10     4     5 ar  
    11     4    35 1   
    12     5     6 ar  
    13     5    36 1   
    14     6    23 ar  
    15     6    37 1   
    16     7     8 1   
    17     7    27 1   
    18     7    38 1   
    19     8    25 1   
    20     8    39 1   
    21     8    40 1   
    22     9    27 1   
    23     9    28 2   
    24     9    32 1   
    25    10    11 2   
    26    10    15 1   
    27    10    28 1   
    28    11    29 1   
    29    11    32 1   
    30    12    13 1   
    31    12    29 2   
    32    12    30 1   
    33    13    14 1   
    34    13    15 1   
    35    14    41 1   
    36    14    42 1   
    37    14    43 1   
    38    15    16 2   
    39    17    30 1   
    40    17    31 1   
    41    17    44 1   
    42    17    45 1   
    43    18    19 1   
    44    18    31 1   
    45    19    20 1   
    46    19    46 1   
    47    19    47 1   
    48    20    30 1   
    49    20    48 1   
    50    20    49 1   
    51    22    50 1   
    52    23    24 ar  
    53    23    51 1   
    54    24    52 1   
    55    25    26 1   
    56    25    53 1   
    57    25    54 1   
    58    26    27 1   
    59    26    55 1   
    60    26    56 1   
    61    30    57 1   
    62    31    58 1   
    63    31    59 1   
@<TRIPOS>SUBSTRUCTURE
     1 MVQ         1 TEMP              0 ****  ****    0 ROOT
