@<TRIPOS>MOLECULE
MVQ
   59    63     1     0     0
SMALL
abcg2


@<TRIPOS>ATOM
      1 C2          -2.9890     1.1050     0.1600 c          1 MVQ       0.573100
      2 C4          -4.2970    -0.7570     1.0760 c3         1 MVQ       0.149300
      3 C5          -5.3880    -1.6500     0.5510 ca         1 MVQ      -0.117300
      4 C6          -5.2820    -3.0330     0.6460 ca         1 MVQ      -0.095500
      5 C7          -6.2910    -3.8560     0.1590 ca         1 MVQ      -0.112000
      6 C8          -7.4150    -3.2990    -0.4330 ca         1 MVQ      -0.101000
      7 C11         -2.4560     1.7220    -1.1350 c5         1 MVQ       0.152500
      8 C12         -3.4290     2.7750    -1.6860 c5         1 MVQ      -0.076400
      9 C16         -0.0800     1.9500    -0.5940 cc         1 MVQ       0.739300
     10 C18          2.0370     1.7670    -0.1050 cd         1 MVQ       0.213500
     11 C19          1.7720     0.4270    -0.1690 cc         1 MVQ       0.044400
     12 C21          3.8720    -0.2100     0.2720 cd         1 MVQ       0.493900
     13 N22          4.2600     1.0990     0.3770 n          1 MVQ      -0.321300
     14 C23          5.6480     1.4290     0.6990 c3         1 MVQ       0.065300
     15 C24          3.3770     2.1790     0.2060 c          1 MVQ       0.485500
     16 O25          3.7430     3.3370     0.3160 o          1 MVQ      -0.513000
     17 C27          4.3530    -2.5850     0.9880 c6         1 MVQ      -0.107900
     18 O29          5.9180    -3.9060    -0.3220 os         1 MVQ      -0.445000
     19 C30          6.4820    -2.7550    -0.9080 c6         1 MVQ       0.153100
     20 C31          5.4810    -1.6130    -1.0070 c6         1 MVQ      -0.107900
     21 O1          -2.8400     1.6540     1.2390 o          1 MVQ      -0.578100
     22 N3          -3.6590    -0.0410    -0.0110 ns         1 MVQ      -0.504900
     23 C9          -7.5280    -1.9170    -0.5350 ca         1 MVQ      -0.112000
     24 C10         -6.5210    -1.0990    -0.0460 ca         1 MVQ      -0.095500
     25 C13         -2.9880     4.0670    -1.0040 c5         1 MVQ      -0.096400
     26 C14         -1.4720     3.9340    -0.9040 c5         1 MVQ       0.238800
     27 N15         -1.2620     2.4930    -0.8900 nh         1 MVQ      -0.768300
     28 N17          1.0010     2.6240    -0.3410 nd         1 MVQ      -0.673000
     29 N20          2.6520    -0.5650     0.0130 nc         1 MVQ      -0.591100
     30 C26          4.9080    -1.2960     0.3840 c6         1 MVQ      -0.095000
     31 C28          5.4350    -3.6530     0.9800 c6         1 MVQ       0.153100
     32 S32          0.0900     0.1910    -0.5460 ss         1 MVQ      -0.086400
     33 H1          -4.7120    -0.0280     1.7730 h1         1 MVQ       0.062200
     34 H2          -3.5630    -1.3490     1.6290 h1         1 MVQ       0.062200
     35 H3          -4.4040    -3.4710     1.1030 ha         1 MVQ       0.115500
     36 H4          -6.1940    -4.9310     0.2410 ha         1 MVQ       0.115500
     37 H5          -8.2030    -3.9370    -0.8130 ha         1 MVQ       0.115000
     38 H6          -2.2730     0.9410    -1.8820 h1         1 MVQ       0.068700
     39 H7          -3.2960     2.8450    -2.7670 hc         1 MVQ       0.059700
     40 H8          -4.4710     2.5180    -1.4980 hc         1 MVQ       0.059700
     41 H9           6.3260     0.9970    -0.0320 h1         1 MVQ       0.058033
     42 H10          5.7630     2.5050     0.6790 h1         1 MVQ       0.058033
     43 H11          5.9070     1.0680     1.6920 h1         1 MVQ       0.058033
     44 H12          4.0210    -2.4180     2.0150 hc         1 MVQ       0.064200
     45 H13          3.4890    -2.9290     0.4180 hc         1 MVQ       0.064200
     46 H14          7.3580    -2.4210    -0.3320 h1         1 MVQ       0.044950
     47 H15          6.8320    -3.0390    -1.9010 h1         1 MVQ       0.044950
     48 H16          5.9780    -0.7440    -1.4450 hc         1 MVQ       0.064200
     49 H17          4.6630    -1.8880    -1.6780 hc         1 MVQ       0.064200
     50 H18         -3.6500    -0.4810    -0.9180 hn         1 MVQ       0.317500
     51 H19         -8.4050    -1.4770    -0.9930 ha         1 MVQ       0.115500
     52 H20         -6.6190    -0.0220    -0.1240 ha         1 MVQ       0.115500
     53 H21         -3.2810     4.9520    -1.5660 hc         1 MVQ       0.064200
     54 H22         -3.4270     4.1460    -0.0090 hc         1 MVQ       0.064200
     55 H23         -0.9620     4.3790    -1.7620 h1         1 MVQ       0.065200
     56 H24         -1.0680     4.3940    -0.0010 h1         1 MVQ       0.065200
     57 H25          5.7290    -0.9650     1.0240 hc         1 MVQ       0.059700
     58 H26          6.2610    -3.3480     1.6400 h1         1 MVQ       0.044950
     59 H27          5.0420    -4.5960     1.3620 h1         1 MVQ       0.044950
@<TRIPOS>BOND
     1     1     7 1   
     2     1    21 2   
     3     1    22 1   
     4     2     3 1   
     5     2    22 1   
     6     2    33 1   
     7     2    34 1   
     8     3     4 ar  
     9     3    24 ar  
    10     4     5 ar  
    11     4    35 1   
    12     5     6 ar  
    13     5    36 1   
    14     6    23 ar  
    15     6    37 1   
    16     7     8 1   
    17     7    27 1   
    18     7    38 1   
    19     8    25 1   
    20     8    39 1   
    21     8    40 1   
    22     9    27 1   
    23     9    28 2   
    24     9    32 1   
    25    10    11 2   
    26    10    15 1   
    27    10    28 1   
    28    11    29 1   
    29    11    32 1   
    30    12    13 1   
    31    12    29 2   
    32    12    30 1   
    33    13    14 1   
    34    13    15 1   
    35    14    41 1   
    36    14    42 1   
    37    14    43 1   
    38    15    16 2   
    39    17    30 1   
    40    17    31 1   
    41    17    44 1   
    42    17    45 1   
    43    18    19 1   
    44    18    31 1   
    45    19    20 1   
    46    19    46 1   
    47    19    47 1   
    48    20    30 1   
    49    20    48 1   
    50    20    49 1   
    51    22    50 1   
    52    23    24 ar  
    53    23    51 1   
    54    24    52 1   
    55    25    26 1   
    56    25    53 1   
    57    25    54 1   
    58    26    27 1   
    59    26    55 1   
    60    26    56 1   
    61    30    57 1   
    62    31    58 1   
    63    31    59 1   
@<TRIPOS>SUBSTRUCTURE
     1 MVQ         1 TEMP              0 ****  ****    0 ROOT
