@<TRIPOS>MOLECULE
MVR
   50    53     1     0     0
SMALL
No Charge or Current Charge


@<TRIPOS>ATOM
      1 N1          10.6590    -0.6180    22.0710 n          1 MVR      -0.248400
      2 N3           8.7150    -5.3440    26.1420 nb         1 MVR      -0.671000
      3 C4          11.6100     0.4420    22.5010 c3         1 MVR       0.078700
      4 C5          10.3530    -0.7410    20.6870 c          1 MVR       0.606100
      5 C6           9.1010    -1.5290    20.2490 c3         1 MVR      -0.102100
      6 C7           7.9280    -0.5710    20.0560 ca         1 MVR      -0.119300
      7 C8           7.0090    -0.3450    21.0970 ca         1 MVR      -0.061000
      8 C10          5.8570     1.1990    19.6260 ca         1 MVR       0.335900
      9 C13          9.3630    -0.9420    24.1380 ca         1 MVR      -0.116500
     10 C15          8.8570    -3.1950    24.9980 cp         1 MVR      -0.144500
     11 C17         10.2260    -2.8790    22.9720 ca         1 MVR      -0.116500
     12 C20          6.4930    -4.5780    27.6970 ca         1 MVR      -0.071000
     13 C21          7.0570    -5.8550    27.8290 ca         1 MVR      -0.163000
     14 C22          8.1620    -6.1970    27.0340 ca         1 MVR       0.340900
     15 O           11.0110    -0.1500    19.8370 o          1 MVR      -0.589100
     16 C11          7.7520     0.1230    18.8390 ca         1 MVR       0.352900
     17 N2           6.7370     0.9920    18.6190 nb         1 MVR      -0.664000
     18 C9           5.9570     0.5560    20.8710 ca         1 MVR      -0.163000
     19 C3          12.9800    -0.1140    22.8030 cc         1 MVR       0.222300
     20 C2          13.8000    -0.6980    21.8260 cc         1 MVR      -0.211000
     21 C1          14.9460    -1.0880    22.4470 cd         1 MVR      -0.169000
     22 N4          13.5310    -0.1020    24.0020 nd         1 MVR      -0.517800
     23 N           14.7590    -0.7140    23.7820 na         1 MVR       0.120800
     24 C           15.7100    -0.9110    24.8850 c3         1 MVR       0.076900
     25 C12         10.1450    -1.4810    23.1010 ca         1 MVR      -0.042000
     26 C16          9.6120    -3.7210    23.9150 ca         1 MVR      -0.077000
     27 C14          8.7450    -1.7810    25.0810 ca         1 MVR      -0.077000
     28 C18          8.1950    -4.1000    26.0050 cp         1 MVR       0.403500
     29 C19          7.0710    -3.6940    26.7720 ca         1 MVR      -0.152000
     30 H1          11.7000     1.2190    21.7320 h1         1 MVR       0.077700
     31 H2          11.2210     0.9340    23.4000 h1         1 MVR       0.077700
     32 H3           8.8050    -2.2780    20.9860 hc         1 MVR       0.071200
     33 H4           9.3180    -2.0310    19.3000 hc         1 MVR       0.071200
     34 H5           7.1080    -0.8520    22.0550 ha         1 MVR       0.116000
     35 H6           5.0490     1.9020    19.4270 h4         1 MVR       0.018100
     36 H8          10.7830    -3.3190    22.1490 ha         1 MVR       0.125500
     37 H9           5.6300    -4.2820    28.2920 ha         1 MVR       0.120000
     38 H10          6.6470    -6.5760    28.5300 ha         1 MVR       0.125000
     39 H11          8.6180    -7.1830    27.1110 h4         1 MVR       0.020100
     40 H12          8.4470    -0.0220    18.0120 h4         1 MVR       0.017100
     41 H13          5.2240     0.7600    21.6470 ha         1 MVR       0.122000
     42 H14         13.5480    -0.8100    20.7760 ha         1 MVR       0.153000
     43 H15         15.8400    -1.5770    22.0760 h4         1 MVR       0.151000
     44 H16         15.2440    -1.5220    25.6660 h1         1 MVR       0.056033
     45 H17         16.6080    -1.4210    24.5140 h1         1 MVR       0.056033
     46 H18         15.9940     0.0620    25.3030 h1         1 MVR       0.056033
     47 H19          9.7120    -4.7980    23.7910 ha         1 MVR       0.126000
     48 H20          8.1790    -1.3190    25.8850 ha         1 MVR       0.126000
     49 H21          6.6390    -2.7080    26.6410 ha         1 MVR       0.124000
     50 H7           9.2270     0.1340    24.2180 ha         1 MVR       0.125500
@<TRIPOS>BOND
     1     1     3 1   
     2     1     4 1   
     3     1    25 1   
     4     2    14 ar  
     5     2    28 ar  
     6     3    19 1   
     7     3    30 1   
     8     3    31 1   
     9     4     5 1   
    10     4    15 2   
    11     5     6 1   
    12     5    32 1   
    13     5    33 1   
    14     6     7 ar  
    15     6    16 ar  
    16     7    18 ar  
    17     7    34 1   
    18     8    17 ar  
    19     8    18 ar  
    20     8    35 1   
    21     9    25 ar  
    22     9    27 ar  
    23     9    50 1   
    24    10    26 ar  
    25    10    27 ar  
    26    10    28 1   
    27    11    25 ar  
    28    11    26 ar  
    29    11    36 1   
    30    12    13 ar  
    31    12    29 ar  
    32    12    37 1   
    33    13    14 ar  
    34    13    38 1   
    35    14    39 1   
    36    16    17 ar  
    37    16    40 1   
    38    18    41 1   
    39    19    20 1   
    40    19    22 2   
    41    20    21 2   
    42    20    42 1   
    43    21    23 1   
    44    21    43 1   
    45    22    23 1   
    46    23    24 1   
    47    24    44 1   
    48    24    45 1   
    49    24    46 1   
    50    26    47 1   
    51    27    48 1   
    52    28    29 ar  
    53    29    49 1   
@<TRIPOS>SUBSTRUCTURE
     1 MVR         1 TEMP              0 ****  ****    0 ROOT
