@<TRIPOS>MOLECULE
MVR
   50    53     1     0     0
SMALL
abcg2


@<TRIPOS>ATOM
      1 N1          10.3070    -0.1260    22.6160 n          1 MVR      -0.248400
      2 N3           9.3610    -5.3930    26.1840 nb         1 MVR      -0.671000
      3 C4          11.4960     0.6350    23.0310 c3         1 MVR       0.078700
      4 C5           9.7580     0.0860    21.3900 c          1 MVR       0.606100
      5 C6           8.5280    -0.7530    21.0480 c3         1 MVR      -0.102100
      6 C7           7.6990    -0.1370    19.9590 ca         1 MVR      -0.119300
      7 C8           6.7620     0.8550    20.2320 ca         1 MVR      -0.061000
      8 C10          6.2620     0.9460    17.8990 ca         1 MVR       0.335900
      9 C13          9.1800    -0.8380    24.6590 ca         1 MVR      -0.116500
     10 C15          9.0730    -3.1810    25.2700 cp         1 MVR      -0.144500
     11 C17         10.1930    -2.4930    23.2350 ca         1 MVR      -0.116500
     12 C20          7.1610    -5.1450    27.8660 ca         1 MVR      -0.071000
     13 C21          7.9140    -6.3120    27.8620 ca         1 MVR      -0.163000
     14 C22          9.0000    -6.3850    26.9990 ca         1 MVR       0.340900
     15 O           10.2180     0.9060    20.5980 o          1 MVR      -0.589100
     16 C11          7.8480    -0.5280    18.6300 ca         1 MVR       0.352900
     17 N2           7.1530    -0.0090    17.6150 nb         1 MVR      -0.664000
     18 C9           6.0310     1.4060    19.1890 ca         1 MVR      -0.163000
     19 C3          12.7410    -0.1900    22.9760 cc         1 MVR       0.222300
     20 C2          13.3570    -0.7730    21.8500 cc         1 MVR      -0.211000
     21 C1          14.4470    -1.4510    22.3590 cd         1 MVR      -0.169000
     22 N4          13.4060    -0.4940    24.0930 nd         1 MVR      -0.517800
     23 N           14.4430    -1.2590    23.6970 na         1 MVR       0.120800
     24 C           15.3930    -1.7630    24.6690 c3         1 MVR       0.076900
     25 C12          9.8770    -1.1640    23.5000 ca         1 MVR      -0.042000
     26 C16          9.7900    -3.4900    24.1100 ca         1 MVR      -0.077000
     27 C14          8.7800    -1.8380    25.5340 ca         1 MVR      -0.077000
     28 C18          8.6410    -4.2590    26.1920 cp         1 MVR       0.403500
     29 C19          7.5250    -4.1080    27.0210 ca         1 MVR      -0.152000
     30 H1          11.5670     1.4940    22.3690 h1         1 MVR       0.077700
     31 H2          11.3410     0.9890    24.0500 h1         1 MVR       0.077700
     32 H3           7.9250    -0.9030    21.9430 hc         1 MVR       0.071200
     33 H4           8.8820    -1.7400    20.7400 hc         1 MVR       0.071200
     34 H5           6.6070     1.1900    21.2510 ha         1 MVR       0.116000
     35 H6           5.7070     1.3560    17.0620 h4         1 MVR       0.018100
     36 H8          10.7490    -2.7390    22.3400 ha         1 MVR       0.125500
     37 H9           6.2980    -5.0450    28.5120 ha         1 MVR       0.120000
     38 H10          7.6670    -7.1470    28.5040 ha         1 MVR       0.125000
     39 H11          9.6110    -7.2810    26.9620 h4         1 MVR       0.020100
     40 H12          8.5650    -1.3040    18.3780 h4         1 MVR       0.017100
     41 H13          5.2940     2.1780    19.3690 ha         1 MVR       0.122000
     42 H14         13.0460    -0.7110    20.8220 ha         1 MVR       0.153000
     43 H15         15.2110    -2.0400    21.8800 h4         1 MVR       0.151000
     44 H16         14.8770    -2.3700    25.4130 h1         1 MVR       0.056033
     45 H17         16.1270    -2.3740    24.1490 h1         1 MVR       0.056033
     46 H18         15.8970    -0.9340    25.1660 h1         1 MVR       0.056033
     47 H19         10.0290    -4.5230    23.8990 ha         1 MVR       0.126000
     48 H20          8.2480    -1.5640    26.4350 ha         1 MVR       0.126000
     49 H21          6.9400    -3.1990    26.9930 ha         1 MVR       0.124000
     50 H7           8.9520     0.1980    24.8710 ha         1 MVR       0.125500
@<TRIPOS>BOND
     1     1     3 1   
     2     1     4 1   
     3     1    25 1   
     4     2    14 ar  
     5     2    28 ar  
     6     3    19 1   
     7     3    30 1   
     8     3    31 1   
     9     4     5 1   
    10     4    15 2   
    11     5     6 1   
    12     5    32 1   
    13     5    33 1   
    14     6     7 ar  
    15     6    16 ar  
    16     7    18 ar  
    17     7    34 1   
    18     8    17 ar  
    19     8    18 ar  
    20     8    35 1   
    21     9    25 ar  
    22     9    27 ar  
    23     9    50 1   
    24    10    26 ar  
    25    10    27 ar  
    26    10    28 1   
    27    11    25 ar  
    28    11    26 ar  
    29    11    36 1   
    30    12    13 ar  
    31    12    29 ar  
    32    12    37 1   
    33    13    14 ar  
    34    13    38 1   
    35    14    39 1   
    36    16    17 ar  
    37    16    40 1   
    38    18    41 1   
    39    19    20 1   
    40    19    22 2   
    41    20    21 2   
    42    20    42 1   
    43    21    23 1   
    44    21    43 1   
    45    22    23 1   
    46    23    24 1   
    47    24    44 1   
    48    24    45 1   
    49    24    46 1   
    50    26    47 1   
    51    27    48 1   
    52    28    29 ar  
    53    29    49 1   
@<TRIPOS>SUBSTRUCTURE
     1 MVR         1 TEMP              0 ****  ****    0 ROOT
