@<TRIPOS>MOLECULE
MVS
   42    44     1     0     0
SMALL
bcc


@<TRIPOS>ATOM
      1 C10         14.1450    35.6230    59.8640 c3         1 MVS       0.121200
      2 C13         14.3050    30.8470    59.6450 ca         1 MVS       0.182600
      3 C15         13.8400    30.7400    60.9530 ca         1 MVS      -0.284000
      4 C17         10.2090    33.8560    63.6720 ca         1 MVS       0.454200
      5 C02         11.5610    32.1330    67.8070 ca         1 MVS      -0.001000
      6 C03         12.6650    31.4770    67.2210 ca         1 MVS      -0.109000
      7 C04         12.8630    31.5710    65.8720 ca         1 MVS      -0.108000
      8 C05         11.9820    32.3090    65.0500 ca         1 MVS      -0.177300
      9 C06         12.1440    32.4280    63.6290 ca         1 MVS       0.235600
     10 C07         13.5660    31.8930    61.6790 ca         1 MVS       0.220600
     11 C08         13.7530    33.1530    61.1200 ca         1 MVS      -0.284000
     12 C09         14.1930    33.2540    59.8030 ca         1 MVS       0.182600
     13 C11         14.4800    32.1040    59.0620 ca         1 MVS       0.008100
     14 C12         13.9390    32.2050    56.7920 c3         1 MVS       0.123700
     15 C14         14.4720    28.4950    59.4020 c3         1 MVS       0.121200
     16 C16         11.2360    33.2280    62.9600 ca         1 MVS      -0.335300
     17 C18         10.8900    32.9880    65.6490 ca         1 MVS       0.418600
     18 C19         10.6960    32.8760    67.0420 ca         1 MVS      -0.128300
     19 N01         11.1810    31.9450    70.3520 n1         1 MVS      -0.355800
     20 N03         10.0130    33.7540    64.9620 nb         1 MVS      -0.685000
     21 O01         14.3960    34.4190    59.1670 os         1 MVS      -0.296400
     22 O02         14.9500    32.2100    57.7910 os         1 MVS      -0.300900
     23 O03         14.6010    29.7960    58.8640 os         1 MVS      -0.296400
     24 H05         14.3630    36.4310    59.1710 h1         1 MVS       0.043867
     25 H06         13.1010    35.7030    60.1800 h1         1 MVS       0.043867
     26 H07         14.7870    35.7300    60.7420 h1         1 MVS       0.043867
     27 H14         13.6770    29.7760    61.4160 ha         1 MVS       0.146000
     28 H16          9.5020    34.4680    63.1220 h4         1 MVS       0.019100
     29 H01         13.3500    30.9120    67.8370 ha         1 MVS       0.146000
     30 H02         13.7290    31.0750    65.4560 ha         1 MVS       0.130000
     31 H04         13.5800    34.0360    61.7180 ha         1 MVS       0.146000
     32 H09         14.4380    32.3060    55.8300 h1         1 MVS       0.034033
     33 H08         13.3710    31.2710    56.7940 h1         1 MVS       0.034033
     34 H10         13.2430    33.0380    56.9150 h1         1 MVS       0.034033
     35 H13         14.7670    27.8070    58.6140 h1         1 MVS       0.043867
     36 H11         15.1270    28.3440    60.2650 h1         1 MVS       0.043867
     37 H12         13.4430    28.2740    59.6960 h1         1 MVS       0.043867
     38 H15         11.2840    33.3630    61.8900 ha         1 MVS       0.153000
     39 H17          9.8550    33.3900    67.4870 ha         1 MVS       0.163000
     40 H03         13.5030    30.9300    63.4760 hn         1 MVS       0.442800
     41 N02         13.1550    31.7540    63.0120 nu         1 MVS      -0.651000
     42 C01         11.3480    32.0310    69.2160 cg         1 MVS       0.231800
@<TRIPOS>BOND
     1     1    21 1   
     2     1    24 1   
     3     1    25 1   
     4     1    26 1   
     5     2     3 ar  
     6     2    13 ar  
     7     2    23 1   
     8     3    10 ar  
     9     3    27 1   
    10     4    16 ar  
    11     4    20 ar  
    12     4    28 1   
    13     5     6 ar  
    14     5    18 ar  
    15     5    42 1   
    16     6     7 ar  
    17     6    29 1   
    18     7     8 ar  
    19     7    30 1   
    20     8     9 ar  
    21     8    17 ar  
    22     9    16 ar  
    23     9    41 1   
    24    10    11 ar  
    25    10    41 1   
    26    11    12 ar  
    27    11    31 1   
    28    12    13 ar  
    29    12    21 1   
    30    13    22 1   
    31    14    22 1   
    32    14    32 1   
    33    14    33 1   
    34    14    34 1   
    35    15    23 1   
    36    15    35 1   
    37    15    36 1   
    38    15    37 1   
    39    16    38 1   
    40    17    18 ar  
    41    17    20 ar  
    42    18    39 1   
    43    19    42 3   
    44    40    41 1   
@<TRIPOS>SUBSTRUCTURE
     1 MVS         1 TEMP              0 ****  ****    0 ROOT
