@<TRIPOS>MOLECULE
MVS
   42    44     1     0     0
SMALL
No Charge or Current Charge


@<TRIPOS>ATOM
      1 C10         13.8320    35.8720    60.0110 c3         1 MVS       0.144400
      2 C13         14.0280    30.9750    59.4870 ca         1 MVS       0.182600
      3 C15         13.4760    30.8190    60.7780 ca         1 MVS      -0.266000
      4 C17         10.1060    34.1600    63.9830 ca         1 MVS       0.388900
      5 C02         11.9260    32.0970    67.8880 ca         1 MVS      -0.001000
      6 C03         12.7790    31.3100    67.0970 ca         1 MVS      -0.091000
      7 C04         12.7540    31.4320    65.6990 ca         1 MVS      -0.090000
      8 C05         11.8670    32.3430    65.0750 ca         1 MVS      -0.112000
      9 C06         11.8170    32.4970    63.6700 ca         1 MVS       0.374000
     10 C07         13.1360    31.9290    61.5490 ca         1 MVS       0.359000
     11 C08         13.3650    33.2170    61.0650 ca         1 MVS      -0.266000
     12 C09         13.9140    33.4050    59.7820 ca         1 MVS       0.182600
     13 C11         14.2490    32.2910    58.9750 ca         1 MVS       0.008100
     14 C12         15.1860    31.5940    56.7460 c3         1 MVS       0.146900
     15 C14         14.1520    28.5100    59.1900 c3         1 MVS       0.144400
     16 C16         10.9140    33.4120    63.1280 ca         1 MVS      -0.252000
     17 C18         11.0080    33.1430    65.8700 ca         1 MVS       0.288000
     18 C19         11.0490    33.0060    67.2700 ca         1 MVS      -0.045000
     19 N01         11.9600    31.8860    70.4850 n1         1 MVS      -0.445000
     20 N03         10.1490    34.0340    65.3250 nb         1 MVS      -0.685000
     21 O01         14.1450    34.6740    59.2770 os         1 MVS      -0.319600
     22 O02         14.7850    32.5760    57.7170 os         1 MVS      -0.324100
     23 O03         14.3510    29.8600    58.7320 os         1 MVS      -0.319600
     24 H05         14.0900    36.7580    59.4180 h1         1 MVS       0.043867
     25 H06         12.7600    35.9190    60.2420 h1         1 MVS       0.043867
     26 H07         14.3990    35.9140    60.9490 h1         1 MVS       0.043867
     27 H14         13.2940    29.8350    61.1940 ha         1 MVS       0.128000
     28 H16          9.3920    34.8800    63.5850 h4         1 MVS       0.019100
     29 H01         13.4660    30.6060    67.5640 ha         1 MVS       0.128000
     30 H02         13.4350    30.8170    65.1160 ha         1 MVS       0.112000
     31 H04         13.1300    34.0620    61.7000 ha         1 MVS       0.128000
     32 H09         15.5680    32.0900    55.8450 h1         1 MVS       0.034033
     33 H08         15.9870    30.9550    57.1400 h1         1 MVS       0.034033
     34 H10         14.3360    30.9670    56.4470 h1         1 MVS       0.034033
     35 H13         14.4790    27.7980    58.4230 h1         1 MVS       0.043867
     36 H11         14.7320    28.3180    60.1020 h1         1 MVS       0.043867
     37 H12         13.0910    28.3210    59.3980 h1         1 MVS       0.043867
     38 H15         10.8150    33.5370    62.0560 ha         1 MVS       0.135000
     39 H17         10.3890    33.6190    67.8780 ha         1 MVS       0.145000
     40 H03         12.8360    30.8060    63.2000 hn         1 MVS       0.498000
     41 N02         12.6080    31.7210    62.8160 nu         1 MVS      -0.983000
     42 C01         11.9490    31.9770    69.3210 cg         1 MVS       0.321000
@<TRIPOS>BOND
     1     1    21 1   
     2     1    24 1   
     3     1    25 1   
     4     1    26 1   
     5     2     3 ar  
     6     2    13 ar  
     7     2    23 1   
     8     3    10 ar  
     9     3    27 1   
    10     4    16 ar  
    11     4    20 ar  
    12     4    28 1   
    13     5     6 ar  
    14     5    18 ar  
    15     5    42 1   
    16     6     7 ar  
    17     6    29 1   
    18     7     8 ar  
    19     7    30 1   
    20     8     9 ar  
    21     8    17 ar  
    22     9    16 ar  
    23     9    41 1   
    24    10    11 ar  
    25    10    41 1   
    26    11    12 ar  
    27    11    31 1   
    28    12    13 ar  
    29    12    21 1   
    30    13    22 1   
    31    14    22 1   
    32    14    32 1   
    33    14    33 1   
    34    14    34 1   
    35    15    23 1   
    36    15    35 1   
    37    15    36 1   
    38    15    37 1   
    39    16    38 1   
    40    17    18 ar  
    41    17    20 ar  
    42    18    39 1   
    43    19    42 3   
    44    40    41 1   
@<TRIPOS>SUBSTRUCTURE
     1 MVS         1 TEMP              0 ****  ****    0 ROOT
