@<TRIPOS>MOLECULE
MVT
   47    49     1     0     0
SMALL
bcc


@<TRIPOS>ATOM
      1 C1           1.0020     0.0210     0.3450 cc         1 MVT       0.418700
      2 C3          -1.1430     1.0040     0.1140 cc         1 MVT       0.672300
      3 O9          -3.1790     1.3080    -2.1880 o          1 MVT      -0.584800
      4 C11         -5.0610    -0.0400     0.9050 ca         1 MVT      -0.084000
      5 C12         -5.5720    -1.2480     1.3350 ca         1 MVT       0.148400
      6 C15         -3.9990    -1.2190    -0.9420 ca         1 MVT      -0.084000
      7 C18          2.4100    -0.3490     0.6440 c3         1 MVT      -0.112700
      8 C19          3.4310     0.5580    -0.0680 c3         1 MVT      -0.008400
      9 C21          4.8410     0.2070     0.3440 ca         1 MVT      -0.047300
     10 C23          6.5840    -1.3800     0.7730 ca         1 MVT       0.135900
     11 C24          7.4950    -0.3840     1.0640 ca         1 MVT      -0.168000
     12 S2           0.2820     1.4780     0.9690 ss         1 MVT      -0.292800
     13 N4          -1.0250    -0.1030    -0.5370 nd         1 MVT      -0.390000
     14 N5           0.2000    -0.6540    -0.4030 nd         1 MVT      -0.288000
     15 N6          -2.2830     1.7620     0.1400 nu         1 MVT      -0.818800
     16 S7          -3.6160     1.4790    -0.8220 sy         1 MVT       1.335200
     17 O8          -4.5320     2.5400    -0.4600 o          1 MVT      -0.584800
     18 C10         -4.2740    -0.0590    -0.2380 ca         1 MVT      -0.242500
     19 C13         -5.3340    -2.4380     0.6740 ca         1 MVT      -0.167000
     20 C14         -4.5460    -2.3920    -0.4590 ca         1 MVT       0.148400
     21 F16         -4.3040    -3.5280    -1.1150 f          1 MVT      -0.129400
     22 C22          5.2760    -1.1150     0.4190 ca         1 MVT      -0.167000
     23 C25          7.0580     0.9310     0.9960 ca         1 MVT      -0.101000
     24 C26          5.7480     1.2230     0.6430 ca         1 MVT      -0.143000
     25 F27          6.9840    -2.6620     0.8360 f          1 MVT      -0.143900
     26 C28          3.2380     0.5910    -1.6010 c3         1 MVT      -0.051700
     27 C29          3.3960    -0.7640    -2.2820 c3         1 MVT      -0.090100
     28 H1          -5.2800     0.8710     1.4450 ha         1 MVT       0.181500
     29 H2          -3.3790    -1.2220    -1.8270 ha         1 MVT       0.181500
     30 H3           2.5780    -0.2980     1.7230 hc         1 MVT       0.074700
     31 H4           2.5330    -1.3930     0.3560 hc         1 MVT       0.074700
     32 H5           3.2510     1.5810     0.2840 hc         1 MVT       0.051700
     33 H6           8.5130    -0.6280     1.3390 ha         1 MVT       0.151000
     34 H7           5.2020     1.3440    -2.1700 hc         1 MVT       0.037867
     35 H8           3.9170     1.7220    -3.3140 hc         1 MVT       0.037867
     36 H9           4.0310     2.6110    -1.7970 hc         1 MVT       0.037867
     37 H10         -2.3940     2.4860     0.8390 hn         1 MVT       0.475800
     38 H11         -5.7520    -3.3710     1.0280 ha         1 MVT       0.172000
     39 H12          4.6100    -1.9440     0.2110 ha         1 MVT       0.150000
     40 H13          7.7460     1.7340     1.2240 ha         1 MVT       0.136000
     41 H14          5.4240     2.2550     0.5990 ha         1 MVT       0.134000
     42 H15          2.2070     0.9240    -1.7690 hc         1 MVT       0.049700
     43 H16          4.4210    -1.1320    -2.2140 hc         1 MVT       0.037867
     44 H17          2.7350    -1.5220    -1.8610 hc         1 MVT       0.037867
     45 H18          3.1510    -0.6760    -3.3410 hc         1 MVT       0.037867
     46 C30          4.1500     1.6260    -2.2520 c3         1 MVT      -0.090100
     47 F17         -6.3330    -1.2710     2.4300 f          1 MVT      -0.129400
@<TRIPOS>BOND
     1     1     7 1   
     2     1    12 1   
     3     1    14 2   
     4     2    12 1   
     5     2    13 2   
     6     2    15 1   
     7     3    16 2   
     8     4     5 ar  
     9     4    18 ar  
    10     4    28 1   
    11     5    19 ar  
    12     5    47 1   
    13     6    18 ar  
    14     6    20 ar  
    15     6    29 1   
    16     7     8 1   
    17     7    30 1   
    18     7    31 1   
    19     8     9 1   
    20     8    26 1   
    21     8    32 1   
    22     9    22 ar  
    23     9    24 ar  
    24    10    11 ar  
    25    10    22 ar  
    26    10    25 1   
    27    11    23 ar  
    28    11    33 1   
    29    13    14 1   
    30    15    16 1   
    31    15    37 1   
    32    16    17 2   
    33    16    18 1   
    34    19    20 ar  
    35    19    38 1   
    36    20    21 1   
    37    22    39 1   
    38    23    24 ar  
    39    23    40 1   
    40    24    41 1   
    41    26    27 1   
    42    26    42 1   
    43    26    46 1   
    44    27    43 1   
    45    27    44 1   
    46    27    45 1   
    47    34    46 1   
    48    35    46 1   
    49    36    46 1   
@<TRIPOS>SUBSTRUCTURE
     1 MVT         1 TEMP              0 ****  ****    0 ROOT
