@<TRIPOS>MOLECULE
MVT
   47    49     1     0     0
SMALL
No Charge or Current Charge


@<TRIPOS>ATOM
      1 C1           0.5640     0.1180    -0.5280 cc         1 MVT       0.418700
      2 C3          -1.4330     1.2740    -0.9930 cc         1 MVT       0.672300
      3 O9          -4.3930     1.2550    -2.4170 o          1 MVT      -0.514000
      4 C11         -3.9360     0.0560     1.3530 ca         1 MVT      -0.066000
      5 C12         -3.8590    -1.1350     2.0950 ca         1 MVT       0.183500
      6 C15         -3.9450    -1.2490    -0.7100 ca         1 MVT      -0.066000
      7 C18          1.8650    -0.4150     0.0090 c3         1 MVT      -0.112700
      8 C19          3.0970     0.4870    -0.2960 c3         1 MVT      -0.008400
      9 C21          4.3540     0.0100     0.4500 ca         1 MVT      -0.047300
     10 C23          5.9060    -1.7480     1.1360 ca         1 MVT       0.171000
     11 C24          6.6750    -0.8130     1.8440 ca         1 MVT      -0.150000
     12 S2          -0.1880     1.5170     0.1780 ss         1 MVT      -0.292800
     13 N4          -1.2520     0.2680    -1.8290 nd         1 MVT      -0.390000
     14 N5          -0.0870    -0.4220    -1.5470 nd         1 MVT      -0.288000
     15 N6          -2.4930     2.1010    -1.0840 nu         1 MVT      -0.874000
     16 S7          -4.0510     1.5350    -1.0200 sy         1 MVT       1.193600
     17 O8          -4.7200     2.5770    -0.2410 o          1 MVT      -0.514000
     18 C10         -3.9800     0.0080    -0.0600 ca         1 MVT      -0.242500
     19 C13         -3.8230    -2.3790     1.4470 ca         1 MVT      -0.149000
     20 C14         -3.8660    -2.4310     0.0470 ca         1 MVT       0.183500
     21 F16         -3.8290    -3.6270    -0.5800 f          1 MVT      -0.164500
     22 C22          4.7540    -1.3450     0.4440 ca         1 MVT      -0.149000
     23 C25          6.2880     0.5370     1.8590 ca         1 MVT      -0.083000
     24 C26          5.1340     0.9430     1.1670 ca         1 MVT      -0.125000
     25 F27          6.2790    -3.0460     1.1190 f          1 MVT      -0.179000
     26 C28          3.3500     0.7300    -1.8220 c3         1 MVT      -0.051700
     27 C29          3.6510    -0.5530    -2.6360 c3         1 MVT      -0.090100
     28 H1          -3.9600     1.0070     1.8810 ha         1 MVT       0.163500
     29 H2          -3.9690    -1.3170    -1.7960 ha         1 MVT       0.163500
     30 H3           1.7710    -0.5210     1.0960 hc         1 MVT       0.074700
     31 H4           2.0230    -1.4280    -0.3750 hc         1 MVT       0.074700
     32 H5           2.8360     1.4690     0.1180 hc         1 MVT       0.051700
     33 H6           7.5670    -1.1350     2.3770 ha         1 MVT       0.133000
     34 H7           5.4290     1.4330    -1.7360 hc         1 MVT       0.037867
     35 H8           4.5170     2.0410    -3.1310 hc         1 MVT       0.037867
     36 H9           4.2210     2.7190    -1.5200 hc         1 MVT       0.037867
     37 H10         -2.4800     2.8290    -0.3880 hn         1 MVT       0.531000
     38 H11         -3.7610    -3.2950     2.0270 ha         1 MVT       0.154000
     39 H12          4.1840    -2.0920    -0.0990 ha         1 MVT       0.132000
     40 H13          6.8800     1.2670     2.4060 ha         1 MVT       0.118000
     41 H14          4.8480     1.9920     1.1860 ha         1 MVT       0.116000
     42 H15          2.4270     1.1530    -2.2390 hc         1 MVT       0.049700
     43 H16          4.5920    -1.0150    -2.3180 hc         1 MVT       0.037867
     44 H17          2.8480    -1.2920    -2.5350 hc         1 MVT       0.037867
     45 H18          3.7420    -0.3140    -3.7030 hc         1 MVT       0.037867
     46 C30          4.4480     1.7940    -2.0640 c3         1 MVT      -0.090100
     47 F17         -3.8150    -1.0830     3.4450 f          1 MVT      -0.164500
@<TRIPOS>BOND
     1     1     7 1   
     2     1    12 1   
     3     1    14 2   
     4     2    12 1   
     5     2    13 2   
     6     2    15 1   
     7     3    16 2   
     8     4     5 ar  
     9     4    18 ar  
    10     4    28 1   
    11     5    19 ar  
    12     5    47 1   
    13     6    18 ar  
    14     6    20 ar  
    15     6    29 1   
    16     7     8 1   
    17     7    30 1   
    18     7    31 1   
    19     8     9 1   
    20     8    26 1   
    21     8    32 1   
    22     9    22 ar  
    23     9    24 ar  
    24    10    11 ar  
    25    10    22 ar  
    26    10    25 1   
    27    11    23 ar  
    28    11    33 1   
    29    13    14 1   
    30    15    16 1   
    31    15    37 1   
    32    16    17 2   
    33    16    18 1   
    34    19    20 ar  
    35    19    38 1   
    36    20    21 1   
    37    22    39 1   
    38    23    24 ar  
    39    23    40 1   
    40    24    41 1   
    41    26    27 1   
    42    26    42 1   
    43    26    46 1   
    44    27    43 1   
    45    27    44 1   
    46    27    45 1   
    47    34    46 1   
    48    35    46 1   
    49    36    46 1   
@<TRIPOS>SUBSTRUCTURE
     1 MVT         1 TEMP              0 ****  ****    0 ROOT
