@<TRIPOS>MOLECULE
MVW
   50    53     1     0     0
SMALL
bcc


@<TRIPOS>ATOM
      1 C1           0.7060    -2.8880    -1.7250 c6         1 MVW      -0.077400
      2 C2          -3.6600     0.3580     0.4410 ca         1 MVW      -0.051200
      3 C3          -2.3780    -0.0970     0.8170 ca         1 MVW      -0.088800
      4 C11          0.1400    -0.0100     0.6260 c3         1 MVW       0.207100
      5 C15          0.0510    -2.0240    -0.6630 c6         1 MVW       0.160800
      6 C16          2.1700    -1.1710     0.0920 c6         1 MVW       0.222800
      7 C17          2.8970    -2.0520    -0.9300 c6         1 MVW      -0.070400
      8 C18          2.1000    -3.2980    -1.2790 c6         1 MVW      -0.076400
      9 C19          3.0080     0.0570     0.3650 ca         1 MVW      -0.083300
     10 C20          3.6660     0.2090     1.5810 ca         1 MVW      -0.117500
     11 C21          4.4810     1.3100     1.8200 ca         1 MVW      -0.133000
     12 C22          4.6430     2.2790     0.8410 ca         1 MVW      -0.128000
     13 C23          3.9880     2.1380    -0.3780 ca         1 MVW      -0.133000
     14 C24          3.1800     1.0350    -0.6130 ca         1 MVW      -0.117500
     15 C4          -2.5820    -1.0980     1.8210 cc         1 MVW      -0.197200
     16 C5          -3.9300    -1.2010     2.0100 cd         1 MVW      -0.116100
     17 N6          -4.5790    -0.3280     1.1870 na         1 MVW      -0.175400
     18 C7          -2.7110     1.8370    -1.1190 ca         1 MVW      -0.112000
     19 C8          -1.4120     1.4150    -0.7710 ca         1 MVW      -0.076300
     20 C9          -1.2330     0.4420     0.2050 ca         1 MVW      -0.039300
     21 C10         -3.8590     1.3360    -0.5340 ca         1 MVW      -0.091300
     22 N12          0.8270    -0.8280    -0.3680 n3         1 MVW      -0.703600
     23 H1           0.0790    -3.7620    -1.9150 hc         1 MVW       0.046200
     24 H2           0.7660    -2.3260    -2.6620 hc         1 MVW       0.046200
     25 H3           0.7530     0.8730     0.8240 h1         1 MVW       0.042200
     26 H4           0.0710    -0.5460     1.5880 h1         1 MVW       0.042200
     27 H5           0.4240     2.5560    -0.7650 hc         1 MVW       0.042367
     28 H6           0.3750     1.2880    -1.9670 hc         1 MVW       0.042367
     29 H7          -0.5560     2.7680    -2.2110 hc         1 MVW       0.042367
     30 H8          -5.7870     2.1730    -0.0540 hc         1 MVW       0.038367
     31 H9          -5.1910     2.5900    -1.6580 hc         1 MVW       0.038367
     32 H10         -5.8240     0.9780    -1.3390 hc         1 MVW       0.038367
     33 H11         -0.9420    -1.7200    -0.9980 h1         1 MVW       0.037700
     34 H12         -0.0980    -2.6310     0.2500 h1         1 MVW       0.037700
     35 H13          2.1040    -1.7440     1.0370 h1         1 MVW       0.023700
     36 H14          3.0790    -1.4680    -1.8370 hc         1 MVW       0.048200
     37 H15          3.8760    -2.3150    -0.5220 hc         1 MVW       0.048200
     38 H16          2.0290    -3.9500    -0.4020 hc         1 MVW       0.039200
     39 H17          2.6110    -3.8700    -2.0560 hc         1 MVW       0.039200
     40 H18          3.5390    -0.5420     2.3520 ha         1 MVW       0.134500
     41 H19          4.9820     1.4110     2.7740 ha         1 MVW       0.129000
     42 H20          5.2740     3.1390     1.0240 ha         1 MVW       0.129000
     43 H21          4.1100     2.8890    -1.1480 ha         1 MVW       0.129000
     44 H22          2.6730     0.9370    -1.5650 ha         1 MVW       0.134500
     45 H23         -1.8330    -1.6750     2.3400 ha         1 MVW       0.152000
     46 H24         -4.4860    -1.8410     2.6760 h4         1 MVW       0.159000
     47 H25         -5.5780    -0.2280     1.1290 hn         1 MVW       0.297700
     48 H26         -2.8130     2.6020    -1.8820 ha         1 MVW       0.125000
     49 C13         -0.2350     2.0400    -1.4670 c3         1 MVW      -0.044800
     50 C14         -5.2340     1.7940    -0.9160 c3         1 MVW      -0.040800
@<TRIPOS>BOND
     1     1     5 1   
     2     1     8 1   
     3     1    23 1   
     4     1    24 1   
     5     2     3 ar  
     6     2    17 1   
     7     2    21 ar  
     8     3    15 1   
     9     3    20 ar  
    10     4    20 1   
    11     4    22 1   
    12     4    25 1   
    13     4    26 1   
    14     5    22 1   
    15     5    33 1   
    16     5    34 1   
    17     6     7 1   
    18     6     9 1   
    19     6    22 1   
    20     6    35 1   
    21     7     8 1   
    22     7    36 1   
    23     7    37 1   
    24     8    38 1   
    25     8    39 1   
    26     9    10 ar  
    27     9    14 ar  
    28    10    11 ar  
    29    10    40 1   
    30    11    12 ar  
    31    11    41 1   
    32    12    13 ar  
    33    12    42 1   
    34    13    14 ar  
    35    13    43 1   
    36    14    44 1   
    37    15    16 2   
    38    15    45 1   
    39    16    17 1   
    40    16    46 1   
    41    17    47 1   
    42    18    19 ar  
    43    18    21 ar  
    44    18    48 1   
    45    19    20 ar  
    46    19    49 1   
    47    21    50 1   
    48    27    49 1   
    49    28    49 1   
    50    29    49 1   
    51    30    50 1   
    52    31    50 1   
    53    32    50 1   
@<TRIPOS>SUBSTRUCTURE
     1 MVW         1 TEMP              0 ****  ****    0 ROOT
