@<TRIPOS>MOLECULE
MVW
   50    53     1     0     0
SMALL
No Charge or Current Charge


@<TRIPOS>ATOM
      1 C1           0.6570    -3.0030    -1.6770 c6         1 MVW      -0.077400
      2 C2          -3.6690     0.3490     0.4360 ca         1 MVW      -0.051200
      3 C3          -2.4090    -0.0510     0.7890 ca         1 MVW      -0.088800
      4 C11          0.1460     0.0300     0.6460 c3         1 MVW       0.207100
      5 C15          0.0160    -2.1070    -0.5910 c6         1 MVW       0.160800
      6 C16          2.2260    -1.2060     0.0620 c6         1 MVW       0.222800
      7 C17          2.9170    -2.0970    -1.0090 c6         1 MVW      -0.070400
      8 C18          2.1040    -3.3780    -1.2930 c6         1 MVW      -0.076400
      9 C19          3.0870     0.0390     0.3440 ca         1 MVW      -0.083300
     10 C20          3.6780     0.2180     1.6110 ca         1 MVW      -0.099500
     11 C21          4.4570     1.3580     1.8770 ca         1 MVW      -0.115000
     12 C22          4.6500     2.3280     0.8790 ca         1 MVW      -0.110000
     13 C23          4.0620     2.1580    -0.3860 ca         1 MVW      -0.115000
     14 C24          3.2840     1.0180    -0.6530 ca         1 MVW      -0.099500
     15 C4          -2.5640    -1.0770     1.7810 cc         1 MVW      -0.247200
     16 C5          -3.9250    -1.2530     1.9860 cd         1 MVW      -0.166100
     17 N6          -4.6300    -0.3590     1.1460 na         1 MVW      -0.225700
     18 C7          -2.7370     1.9290    -1.1250 ca         1 MVW      -0.094000
     19 C8          -1.4280     1.5190    -0.7640 ca         1 MVW      -0.076300
     20 C9          -1.2480     0.5040     0.2160 ca         1 MVW      -0.039300
     21 C10         -3.8770     1.3470    -0.5280 ca         1 MVW      -0.091300
     22 N12          0.8180    -0.8760    -0.3300 n3         1 MVW      -0.703600
     23 H1           0.0560    -3.9120    -1.8130 hc         1 MVW       0.046200
     24 H2           0.6510    -2.4740    -2.6400 hc         1 MVW       0.046200
     25 H3           0.7540     0.9260     0.8180 h1         1 MVW       0.042200
     26 H4           0.0730    -0.4690     1.6210 h1         1 MVW       0.042200
     27 H5           0.4300     2.6550    -0.7150 hc         1 MVW       0.042367
     28 H6           0.3560     1.4410    -2.0060 hc         1 MVW       0.042367
     29 H7          -0.5430     2.9530    -2.1570 hc         1 MVW       0.042367
     30 H8          -5.8250     2.1830    -0.0540 hc         1 MVW       0.038367
     31 H9          -5.2600     2.5790    -1.6830 hc         1 MVW       0.038367
     32 H10         -5.8570     0.9520    -1.3290 hc         1 MVW       0.038367
     33 H11         -0.9980    -1.8460    -0.9260 h1         1 MVW       0.037700
     34 H12         -0.0930    -2.6920     0.3350 h1         1 MVW       0.037700
     35 H13          2.1900    -1.7950     0.9910 h1         1 MVW       0.023700
     36 H14          3.0430    -1.5320    -1.9420 hc         1 MVW       0.048200
     37 H15          3.9260    -2.3680    -0.6710 hc         1 MVW       0.048200
     38 H16          2.0990    -4.0220    -0.4030 hc         1 MVW       0.039200
     39 H17          2.5730    -3.9550    -2.1020 hc         1 MVW       0.039200
     40 H18          3.5330    -0.5250     2.3920 ha         1 MVW       0.116500
     41 H19          4.9100     1.4890     2.8570 ha         1 MVW       0.111000
     42 H20          5.2520     3.2100     1.0850 ha         1 MVW       0.111000
     43 H21          4.2080     2.9090    -1.1590 ha         1 MVW       0.111000
     44 H22          2.8270     0.8970    -1.6320 ha         1 MVW       0.116500
     45 H23         -1.7780    -1.6330     2.2860 ha         1 MVW       0.202000
     46 H24         -4.4390    -1.9390     2.6570 h4         1 MVW       0.209000
     47 H25         -5.6370    -0.2550     1.0730 hn         1 MVW       0.348000
     48 H26         -2.8680     2.7040    -1.8770 ha         1 MVW       0.107000
     49 C13         -0.2320     2.1780    -1.4470 c3         1 MVW      -0.044800
     50 C14         -5.2810     1.7900    -0.9210 c3         1 MVW      -0.040800
@<TRIPOS>BOND
     1     1     5 1   
     2     1     8 1   
     3     1    23 1   
     4     1    24 1   
     5     2     3 ar  
     6     2    17 1   
     7     2    21 ar  
     8     3    15 1   
     9     3    20 ar  
    10     4    20 1   
    11     4    22 1   
    12     4    25 1   
    13     4    26 1   
    14     5    22 1   
    15     5    33 1   
    16     5    34 1   
    17     6     7 1   
    18     6     9 1   
    19     6    22 1   
    20     6    35 1   
    21     7     8 1   
    22     7    36 1   
    23     7    37 1   
    24     8    38 1   
    25     8    39 1   
    26     9    10 ar  
    27     9    14 ar  
    28    10    11 ar  
    29    10    40 1   
    30    11    12 ar  
    31    11    41 1   
    32    12    13 ar  
    33    12    42 1   
    34    13    14 ar  
    35    13    43 1   
    36    14    44 1   
    37    15    16 2   
    38    15    45 1   
    39    16    17 1   
    40    16    46 1   
    41    17    47 1   
    42    18    19 ar  
    43    18    21 ar  
    44    18    48 1   
    45    19    20 ar  
    46    19    49 1   
    47    21    50 1   
    48    27    49 1   
    49    28    49 1   
    50    29    49 1   
    51    30    50 1   
    52    31    50 1   
    53    32    50 1   
@<TRIPOS>SUBSTRUCTURE
     1 MVW         1 TEMP              0 ****  ****    0 ROOT
