@<TRIPOS>MOLECULE
MVX
   34    37     1     0     0
SMALL
abcg2


@<TRIPOS>ATOM
      1 N1           7.6820    -0.1660    17.8740 nc         1 MVX      -0.337000
      2 N3           6.1100     0.6700    19.1650 na         1 MVX      -0.359000
      3 C4           8.7690    -0.0310    23.5190 c5         1 MVX       0.160600
      4 C5           9.2600    -0.7200    22.2170 c5         1 MVX      -0.112400
      5 C6           8.7740     0.0340    20.9840 c          1 MVX       0.612100
      6 C7           7.2570    -0.0720    19.1070 cd         1 MVX       0.492400
      7 C8           5.8640     1.0130    17.8720 cd         1 MVX       0.394400
      8 C10          4.7040     2.3090    20.4770 cx         1 MVX      -0.122900
      9 C13         11.7850    -1.1560    21.6330 ca         1 MVX      -0.033000
     10 O1           9.1470     1.1630    20.7130 o          1 MVX      -0.542100
     11 O            9.9060     0.6840    24.0750 os         1 MVX      -0.324100
     12 C12         10.7560    -0.6110    22.3780 ca         1 MVX      -0.160300
     13 C3          11.0260     0.2280    23.4530 ca         1 MVX       0.140100
     14 C2          12.3220     0.5530    23.8200 ca         1 MVX      -0.126000
     15 C1          13.3650     0.0040    23.0740 ca         1 MVX      -0.059000
     16 C           13.0890    -0.8370    22.0020 ca         1 MVX       0.087000
     17 CL          14.4220    -1.5200    21.0870 cl         1 MVX      -0.207000
     18 N            7.8590    -0.6410    20.2290 ns         1 MVX      -0.496400
     19 N2           6.7910     0.5290    17.0820 nc         1 MVX      -0.354000
     20 C9           5.3040     0.9450    20.3280 cx         1 MVX      -0.004700
     21 C11          5.8310     1.8800    21.3760 cx         1 MVX      -0.122900
     22 H2           8.4530    -0.7770    24.2480 h1         1 MVX       0.065200
     23 H3           8.9220    -1.7540    22.1830 hc         1 MVX       0.076700
     24 H4           5.0160     1.6050    17.5690 h5         1 MVX       0.066100
     25 H5           4.9290     3.0420    19.7150 hc         1 MVX       0.089700
     26 H6           3.7020     2.3590    20.8800 hc         1 MVX       0.089700
     27 H7          11.5900    -1.8050    20.7910 ha         1 MVX       0.137000
     28 H8          12.5230     1.2060    24.6590 ha         1 MVX       0.138000
     29 H9          14.3900     0.2290    23.3330 ha         1 MVX       0.134000
     30 H10          7.5820    -1.5720    20.5030 hn         1 MVX       0.336500
     31 H11          4.7240     0.0900    20.6490 h1         1 MVX       0.095700
     32 H12          5.6170     1.6320    22.4060 hc         1 MVX       0.089700
     33 H13          6.8030     2.3160    21.1970 hc         1 MVX       0.089700
     34 H1           7.9710     0.6890    23.3580 h1         1 MVX       0.065200
@<TRIPOS>BOND
     1     1     6 2   
     2     1    19 1   
     3     2     6 1   
     4     2     7 1   
     5     2    20 1   
     6     3     4 1   
     7     3    11 1   
     8     3    22 1   
     9     3    34 1   
    10     4     5 1   
    11     4    12 1   
    12     4    23 1   
    13     5    10 2   
    14     5    18 1   
    15     6    18 1   
    16     7    19 2   
    17     7    24 1   
    18     8    20 1   
    19     8    21 1   
    20     8    25 1   
    21     8    26 1   
    22     9    12 ar  
    23     9    16 ar  
    24     9    27 1   
    25    11    13 1   
    26    12    13 ar  
    27    13    14 ar  
    28    14    15 ar  
    29    14    28 1   
    30    15    16 ar  
    31    15    29 1   
    32    16    17 1   
    33    18    30 1   
    34    20    21 1   
    35    20    31 1   
    36    21    32 1   
    37    21    33 1   
@<TRIPOS>SUBSTRUCTURE
     1 MVX         1 TEMP              0 ****  ****    0 ROOT
