@<TRIPOS>MOLECULE
MVX
   34    37     1     0     0
SMALL
No Charge or Current Charge


@<TRIPOS>ATOM
      1 N1           7.0260    -0.9280    18.0580 nc         1 MVX      -0.337000
      2 N3           6.3650     0.8390    19.1730 na         1 MVX      -0.359000
      3 C4           8.7850    -0.8380    23.6320 c5         1 MVX       0.160600
      4 C5           9.3060    -1.0550    22.1600 c5         1 MVX      -0.112400
      5 C6           8.5820    -0.0540    21.2250 c          1 MVX       0.612100
      6 C7           7.1710    -0.2770    19.2000 cd         1 MVX       0.492400
      7 C8           5.7020     0.8150    17.9720 cd         1 MVX       0.394400
      8 C10          4.6550     2.4920    20.3800 cx         1 MVX      -0.122900
      9 C13         11.8330    -0.8750    21.5160 ca         1 MVX      -0.033000
     10 O1           8.5800     1.1620    21.3290 o          1 MVX      -0.542100
     11 O            9.7640    -0.0110    24.3520 os         1 MVX      -0.324100
     12 C12         10.7460    -0.7020    22.3890 ca         1 MVX      -0.160300
     13 C3          10.9150    -0.1220    23.6250 ca         1 MVX       0.140100
     14 C2          12.1690     0.3310    24.0570 ca         1 MVX      -0.126000
     15 C1          13.2760     0.1660    23.1990 ca         1 MVX      -0.059000
     16 C           13.1060    -0.4370    21.9330 ca         1 MVX       0.087000
     17 Cl          14.4910    -0.6360    20.8660 cl         1 MVX      -0.207000
     18 N            7.9560    -0.7500    20.2180 ns         1 MVX      -0.496400
     19 N2           6.1200    -0.2320    17.2740 nc         1 MVX      -0.354000
     20 C9           5.7930     1.4930    20.3660 cx         1 MVX      -0.004700
     21 C11          6.0460     2.9280    20.7650 cx         1 MVX      -0.122900
     22 H2           8.7190    -1.8020    24.1540 h1         1 MVX       0.065200
     23 H3           9.1650    -2.0920    21.8360 hc         1 MVX       0.076700
     24 H4           4.9410     1.5320    17.6880 h5         1 MVX       0.066100
     25 H5           4.2630     2.8610    19.4360 hc         1 MVX       0.089700
     26 H6           3.9150     2.4010    21.1710 hc         1 MVX       0.089700
     27 H7          11.6980    -1.3310    20.5380 ha         1 MVX       0.137000
     28 H8          12.2820     0.7960    25.0330 ha         1 MVX       0.138000
     29 H9          14.2610     0.5040    23.5100 ha         1 MVX       0.134000
     30 H10          8.1980    -1.7290    20.1780 hn         1 MVX       0.336500
     31 H11          5.7830     0.7480    21.1630 h1         1 MVX       0.095700
     32 H12          6.2480     3.1290    21.8150 hc         1 MVX       0.089700
     33 H13          6.5930     3.5570    20.0680 hc         1 MVX       0.089700
     34 H1           7.7940    -0.3670    23.6790 h1         1 MVX       0.065200
@<TRIPOS>BOND
     1     1     6 2   
     2     1    19 1   
     3     2     6 1   
     4     2     7 1   
     5     2    20 1   
     6     3     4 1   
     7     3    11 1   
     8     3    22 1   
     9     3    34 1   
    10     4     5 1   
    11     4    12 1   
    12     4    23 1   
    13     5    10 2   
    14     5    18 1   
    15     6    18 1   
    16     7    19 2   
    17     7    24 1   
    18     8    20 1   
    19     8    21 1   
    20     8    25 1   
    21     8    26 1   
    22     9    12 ar  
    23     9    16 ar  
    24     9    27 1   
    25    11    13 1   
    26    12    13 ar  
    27    13    14 ar  
    28    14    15 ar  
    29    14    28 1   
    30    15    16 ar  
    31    15    29 1   
    32    16    17 1   
    33    18    30 1   
    34    20    21 1   
    35    20    31 1   
    36    21    32 1   
    37    21    33 1   
@<TRIPOS>SUBSTRUCTURE
     1 MVX         1 TEMP              0 ****  ****    0 ROOT
