@<TRIPOS>MOLECULE
MVY
   37    38     1     0     0
SMALL
No Charge or Current Charge


@<TRIPOS>ATOM
      1 C11         -2.9170    -0.2170    -0.8210 ca         1 MVY      -0.175000
      2 C12         -4.2960     0.0450    -0.8800 ca         1 MVY       0.210000
      3 C14         -4.9520     0.6610     0.2020 ca         1 MVY       0.036000
      4 C16         -4.2190     1.0150     1.3450 ca         1 MVY      -0.047000
      5 C17         -2.8380     0.7530     1.4040 ca         1 MVY      -0.181000
      6 C18          2.1160    -2.1470     0.4270 c6         1 MVY      -0.068400
      7 C19          3.4900    -2.0650     1.1120 c6         1 MVY      -0.105400
      8 C20          4.5020    -1.2480     0.2740 c6         1 MVY       0.103000
      9 C01          7.2410     1.6710    -0.8160 c3         1 MVY       0.168900
     10 C03          4.9150     1.0680    -0.6610 c          1 MVY       0.637100
     11 C05          2.5820     0.1710    -0.6290 c6         1 MVY       0.108000
     12 C06          1.6030    -0.7150     0.1750 c6         1 MVY      -0.174700
     13 C07          0.1660    -0.6630    -0.3830 c          1 MVY       0.612100
     14 C10         -2.1730     0.1370     0.3260 ca         1 MVY       0.012000
     15 F13         -4.9890    -0.3030    -1.9880 f          1 MVY      -0.158000
     16 N04          4.0120     0.0860    -0.2020 n          1 MVY      -0.392800
     17 N09         -0.7770    -0.0940     0.4640 ns         1 MVY      -0.141000
     18 O02          6.2200     0.7470    -0.3970 os         1 MVY      -0.453100
     19 O08         -0.0850    -1.1020    -1.4990 o          1 MVY      -0.573100
     20 O21          4.5630     2.0920    -1.2290 o          1 MVY      -0.542000
     21 Cl1         -6.6830     0.9950     0.1400 cl         1 MVY      -0.169000
     22 H1          -2.4550    -0.6940    -1.6780 ha         1 MVY       0.169000
     23 H2          -4.7200     1.4920     2.1850 ha         1 MVY       0.132000
     24 H3          -2.2830     1.0330     2.2970 ha         1 MVY       0.119000
     25 H4           2.1960    -2.6980    -0.5210 hc         1 MVY       0.057700
     26 H5           1.4110    -2.7030     1.0630 hc         1 MVY       0.057700
     27 H6           3.3810    -1.6010     2.1020 hc         1 MVY       0.052700
     28 H7           3.8840    -3.0750     1.2860 hc         1 MVY       0.052700
     29 H8           5.4080    -1.1200     0.8840 h1         1 MVY       0.064700
     30 H9           4.7910    -1.8400    -0.6060 h1         1 MVY       0.064700
     31 H10          8.2340     1.2920    -0.5440 h1         1 MVY       0.048700
     32 H11          7.2180     1.8130    -1.9040 h1         1 MVY       0.048700
     33 H12          7.1060     2.6480    -0.3340 h1         1 MVY       0.048700
     34 H13          2.5300    -0.1150    -1.6900 h1         1 MVY       0.079700
     35 H14          2.2440     1.2160    -0.5670 h1         1 MVY       0.079700
     36 H15          1.5440    -0.2480     1.1690 hc         1 MVY       0.061700
     37 H16         -0.4000     0.2160     1.3500 hn         1 MVY       0.157000
@<TRIPOS>BOND
     1     1     2 ar  
     2     1    14 ar  
     3     1    22 1   
     4     2     3 ar  
     5     2    15 1   
     6     3     4 ar  
     7     3    21 1   
     8     4     5 ar  
     9     4    23 1   
    10     5    14 ar  
    11     5    24 1   
    12     6     7 1   
    13     6    12 1   
    14     6    25 1   
    15     6    26 1   
    16     7     8 1   
    17     7    27 1   
    18     7    28 1   
    19     8    16 1   
    20     8    29 1   
    21     8    30 1   
    22     9    18 1   
    23     9    31 1   
    24     9    32 1   
    25     9    33 1   
    26    10    16 1   
    27    10    18 1   
    28    10    20 2   
    29    11    12 1   
    30    11    16 1   
    31    11    34 1   
    32    11    35 1   
    33    12    13 1   
    34    12    36 1   
    35    13    17 1   
    36    13    19 2   
    37    14    17 1   
    38    17    37 1   
@<TRIPOS>SUBSTRUCTURE
     1 MVY         1 TEMP              0 ****  ****    0 ROOT
