@<TRIPOS>MOLECULE
MVY
   37    38     1     0     0
SMALL
bcc


@<TRIPOS>ATOM
      1 C11         -2.7670    -0.4400    -0.5200 ca         1 MVY      -0.193000
      2 C12         -4.1150    -0.1440    -0.5120 ca         1 MVY       0.174900
      3 C14         -4.6570     0.8300     0.3060 ca         1 MVY      -0.055600
      4 C16         -3.8100     1.5310     1.1510 ca         1 MVY      -0.065000
      5 C17         -2.4570     1.2540     1.1630 ca         1 MVY      -0.199000
      6 C18          2.2090    -2.1040     0.4990 c6         1 MVY      -0.068400
      7 C19          3.7160    -2.0870     0.7350 c6         1 MVY      -0.105400
      8 C20          4.4530    -1.5530    -0.4870 c6         1 MVY       0.103000
      9 C01          6.5260     1.9490     0.1440 c3         1 MVY       0.145700
     10 C03          4.5320     0.9310    -0.5700 c          1 MVY       0.753100
     11 C05          2.5190    -0.2620    -1.1780 c6         1 MVY       0.108000
     12 C06          1.7100    -0.7290     0.0420 c6         1 MVY      -0.174700
     13 C07          0.2410    -0.7800    -0.3160 c          1 MVY       0.679100
     14 C10         -1.9190     0.2680     0.3300 ca         1 MVY       0.104600
     15 F13         -4.9230    -0.8290    -1.3240 f          1 MVY      -0.122900
     16 N04          3.9310    -0.2460    -0.8600 n          1 MVY      -0.459800
     17 N09         -0.5450     0.0540     0.4130 ns         1 MVY      -0.467100
     18 O02          5.7840     0.7680    -0.1380 os         1 MVY      -0.429900
     19 O08         -0.1790    -1.5100    -1.1970 o          1 MVY      -0.573100
     20 O21          4.0150     2.0230    -0.7060 o          1 MVY      -0.591000
     21 CL1         -6.3490     1.1490     0.2630 cl         1 MVY      -0.077400
     22 H1          -2.4030    -1.2130    -1.1780 ha         1 MVY       0.187000
     23 H2          -4.2100     2.2970     1.8000 ha         1 MVY       0.150000
     24 H3          -1.8110     1.8110     1.8290 ha         1 MVY       0.137000
     25 H4           1.9760    -2.8430    -0.2740 hc         1 MVY       0.057700
     26 H5           1.6850    -2.4110     1.4060 hc         1 MVY       0.057700
     27 H6           3.9590    -1.4680     1.6040 hc         1 MVY       0.052700
     28 H7           4.0670    -3.0970     0.9550 hc         1 MVY       0.052700
     29 H8           5.5240    -1.5050    -0.3140 h1         1 MVY       0.064700
     30 H9           4.2950    -2.2260    -1.3350 h1         1 MVY       0.064700
     31 H10          7.5020     1.6100     0.4830 h1         1 MVY       0.048700
     32 H11          6.6520     2.5690    -0.7430 h1         1 MVY       0.048700
     33 H12          6.0610     2.5410     0.9320 h1         1 MVY       0.048700
     34 H13          2.3610    -0.9580    -2.0070 h1         1 MVY       0.079700
     35 H14          2.2010     0.7240    -1.5080 h1         1 MVY       0.079700
     36 H15          1.8730    -0.0070     0.8500 hc         1 MVY       0.061700
     37 H16         -0.0730     0.6060     1.1140 hn         1 MVY       0.323500
@<TRIPOS>BOND
     1     1     2 ar  
     2     1    14 ar  
     3     1    22 1   
     4     2     3 ar  
     5     2    15 1   
     6     3     4 ar  
     7     3    21 1   
     8     4     5 ar  
     9     4    23 1   
    10     5    14 ar  
    11     5    24 1   
    12     6     7 1   
    13     6    12 1   
    14     6    25 1   
    15     6    26 1   
    16     7     8 1   
    17     7    27 1   
    18     7    28 1   
    19     8    16 1   
    20     8    29 1   
    21     8    30 1   
    22     9    18 1   
    23     9    31 1   
    24     9    32 1   
    25     9    33 1   
    26    10    16 1   
    27    10    18 1   
    28    10    20 2   
    29    11    12 1   
    30    11    16 1   
    31    11    34 1   
    32    11    35 1   
    33    12    13 1   
    34    12    36 1   
    35    13    17 1   
    36    13    19 2   
    37    14    17 1   
    38    17    37 1   
@<TRIPOS>SUBSTRUCTURE
     1 MVY         1 TEMP              0 ****  ****    0 ROOT
