@<TRIPOS>MOLECULE
MVZ
   28    30     1     0     0
SMALL
No Charge or Current Charge


@<TRIPOS>ATOM
      1 C2           1.5740    -0.1360    -0.0930 ca         1 MVZ      -0.085900
      2 C3           0.1770    -0.1450    -0.3200 ca         1 MVZ       0.357000
      3 C12          1.5540    -2.5330     0.4420 ca         1 MVZ      -0.101300
      4 C13          2.2540    -1.3170     0.2850 ca         1 MVZ      -0.051000
      5 C15          2.2770    -3.8090     0.8520 c3         1 MVZ      -0.043800
      6 C21         -1.3490     1.7680     0.0670 cc         1 MVZ       0.664400
      7 C23         -2.7040     2.4420     1.6640 cc         1 MVZ      -0.243000
      8 C26         -2.4820     3.4380     0.7430 cd         1 MVZ       0.252900
      9 Br1          2.5900     1.4880    -0.2620 br         1 MVZ      -0.090100
     10 C4          -0.4910    -1.3800    -0.1820 ca         1 MVZ      -0.110800
     11 C5           0.1730    -2.5210     0.1950 ca         1 MVZ      -0.028200
     12 N6          -0.7200    -3.5830     0.2620 na         1 MVZ      -0.208700
     13 C8          -2.0120    -3.1570    -0.1070 cc         1 MVZ      -0.162100
     14 C10         -1.8650    -1.8090    -0.3830 cd         1 MVZ       0.047800
     15 Cl1         -3.1380    -0.8040    -1.0040 cl         1 MVZ      -0.129000
     16 N19         -0.4790     1.0380    -0.6450 nu         1 MVZ      -0.938900
     17 N22         -1.9500     1.3740     1.2180 na         1 MVZ      -0.327500
     18 N29         -1.6170     3.0040    -0.2460 nd         1 MVZ      -0.719000
     19 H1           3.3270    -1.2830     0.4620 ha         1 MVZ       0.131000
     20 H2           2.1820    -4.5800     0.0790 hc         1 MVZ       0.044367
     21 H3           3.3470    -3.6350     1.0150 hc         1 MVZ       0.044367
     22 H4           1.8630    -4.2130     1.7840 hc         1 MVZ       0.044367
     23 H5          -3.3120     2.4230     2.5620 h4         1 MVZ       0.155000
     24 H6          -2.8900     4.4420     0.7410 h4         1 MVZ       0.035100
     25 H7          -0.4680    -4.5320     0.5240 hn         1 MVZ       0.358000
     26 H8          -2.8760    -3.8130    -0.1650 h4         1 MVZ       0.229000
     27 H9           0.0720     1.6750    -1.2120 hn         1 MVZ       0.521000
     28 H10         -1.8530     0.4590     1.6360 hn         1 MVZ       0.356000
@<TRIPOS>BOND
     1     1     2 ar  
     2     1     4 ar  
     3     1     9 1   
     4     2    10 ar  
     5     2    16 1   
     6     3     4 ar  
     7     3     5 1   
     8     3    11 ar  
     9     4    19 1   
    10     5    20 1   
    11     5    21 1   
    12     5    22 1   
    13     6    16 1   
    14     6    17 1   
    15     6    18 2   
    16     7     8 2   
    17     7    17 1   
    18     7    23 1   
    19     8    18 1   
    20     8    24 1   
    21    10    11 ar  
    22    10    14 1   
    23    11    12 1   
    24    12    13 1   
    25    12    25 1   
    26    13    14 2   
    27    13    26 1   
    28    14    15 1   
    29    16    27 1   
    30    17    28 1   
@<TRIPOS>SUBSTRUCTURE
     1 MVZ         1 TEMP              0 ****  ****    0 ROOT
