@<TRIPOS>MOLECULE
MVZ
   28    30     1     0     0
SMALL
bcc


@<TRIPOS>ATOM
      1 C2           1.6110    -0.1510    -0.0970 ca         1 MVZ      -0.085900
      2 C3           0.2570    -0.0720    -0.3770 ca         1 MVZ       0.218600
      3 C12          1.5240    -2.5080     0.4850 ca         1 MVZ      -0.101300
      4 C13          2.2380    -1.3430     0.3070 ca         1 MVZ      -0.069000
      5 C15          2.1590    -3.7880     0.9320 c3         1 MVZ      -0.043800
      6 C21         -1.2780     1.7620     0.0050 cc         1 MVZ       0.664400
      7 C23         -2.5760     2.2200     1.7140 cc         1 MVZ      -0.275600
      8 C26         -2.7070     3.1580     0.7400 cd         1 MVZ       0.318200
      9 BR1          2.6830     1.3990    -0.2390 br         1 MVZ      -0.090100
     10 C4          -0.4860    -1.2610    -0.2330 ca         1 MVZ      -0.110800
     11 C5           0.1540    -2.4360     0.2110 ca         1 MVZ      -0.028200
     12 N6          -0.7780    -3.4270     0.2680 na         1 MVZ      -0.158400
     13 C8          -1.9860    -2.9460    -0.1320 cc         1 MVZ      -0.112100
     14 C10         -1.8490    -1.6250    -0.4500 cd         1 MVZ      -0.027800
     15 CL1         -3.1190    -0.6370    -1.0430 cl         1 MVZ      -0.053400
     16 N19         -0.3720     1.1040    -0.7920 nu         1 MVZ      -0.745300
     17 N22         -1.6400     1.3310     1.2310 na         1 MVZ      -0.327900
     18 N29         -1.8960     2.8640    -0.3300 nd         1 MVZ      -0.719000
     19 H1           3.3030    -1.3460     0.5000 ha         1 MVZ       0.149000
     20 H2           2.0440    -4.5710     0.1800 hc         1 MVZ       0.044367
     21 H3           3.2230    -3.6570     1.1170 hc         1 MVZ       0.044367
     22 H4           1.7020    -4.1550     1.8530 hc         1 MVZ       0.044367
     23 H5          -3.0390     2.0970     2.6770 h4         1 MVZ       0.173000
     24 H6          -3.3420     4.0300     0.7430 h4         1 MVZ       0.035100
     25 H7          -0.6070    -4.3810     0.5420 hn         1 MVZ       0.307700
     26 H8          -2.8590    -3.5760    -0.1700 h4         1 MVZ       0.179000
     27 H9           0.1180     1.6970    -1.4450 hn         1 MVZ       0.465800
     28 H10         -1.2980     0.5170     1.7150 hn         1 MVZ       0.305700
@<TRIPOS>BOND
     1     1     2 ar  
     2     1     4 ar  
     3     1     9 1   
     4     2    10 ar  
     5     2    16 1   
     6     3     4 ar  
     7     3     5 1   
     8     3    11 ar  
     9     4    19 1   
    10     5    20 1   
    11     5    21 1   
    12     5    22 1   
    13     6    16 1   
    14     6    17 1   
    15     6    18 2   
    16     7     8 2   
    17     7    17 1   
    18     7    23 1   
    19     8    18 1   
    20     8    24 1   
    21    10    11 ar  
    22    10    14 1   
    23    11    12 1   
    24    12    13 1   
    25    12    25 1   
    26    13    14 2   
    27    13    26 1   
    28    14    15 1   
    29    16    27 1   
    30    17    28 1   
@<TRIPOS>SUBSTRUCTURE
     1 MVZ         1 TEMP              0 ****  ****    0 ROOT
