@<TRIPOS>MOLECULE
MW0
   16    16     1     0     0
SMALL
bcc


@<TRIPOS>ATOM
      1 C1          37.6130   -38.9420    10.7970 c3         1 MW0      -0.122400
      2 C2          37.9790   -37.5480    10.4520 cc         1 MW0       0.255000
      3 C6          37.4370   -36.3480    10.7740 cd         1 MW0      -0.275300
      4 C5          38.2390   -35.3580    10.1280 cd         1 MW0      -0.245300
      5 C4          39.2120   -36.0260     9.4660 cc         1 MW0       0.230000
      6 C7          40.3370   -35.5780     8.6120 c3         1 MW0       0.116100
      7 O3          39.0590   -37.3590     9.6620 os         1 MW0      -0.321800
      8 O8          40.1050   -35.9890     7.2800 oh         1 MW0      -0.585800
      9 H1          37.3840   -39.5330     9.9090 hc         1 MW0       0.053367
     10 H2          38.4160   -39.4520    11.3340 hc         1 MW0       0.053367
     11 H3          36.7320   -38.9400    11.4360 hc         1 MW0       0.053367
     12 H4          36.5680   -36.1890    11.3930 ha         1 MW0       0.157000
     13 H5          38.1060   -34.2880    10.1530 ha         1 MW0       0.157000
     14 H6          41.2800   -35.9880     8.9950 h1         1 MW0       0.035200
     15 H7          40.4040   -34.4880     8.7050 h1         1 MW0       0.035200
     16 H8          40.9060   -35.8180     6.7750 ho         1 MW0       0.405000
@<TRIPOS>BOND
     1     1     2 1   
     2     1     9 1   
     3     1    10 1   
     4     1    11 1   
     5     2     3 2   
     6     2     7 1   
     7     3     4 1   
     8     3    12 1   
     9     4     5 2   
    10     4    13 1   
    11     5     6 1   
    12     5     7 1   
    13     6     8 1   
    14     6    14 1   
    15     6    15 1   
    16     8    16 1   
@<TRIPOS>SUBSTRUCTURE
     1 MW0         1 TEMP              0 ****  ****    0 ROOT
