@<TRIPOS>MOLECULE
MW0
   16    16     1     0     0
SMALL
No Charge or Current Charge


@<TRIPOS>ATOM
      1 C1          37.5790   -38.9530    10.9990 c3         1 MW0      -0.122400
      2 C2          37.9770   -37.6000    10.4880 cc         1 MW0       0.145300
      3 C6          37.3840   -36.3760    10.6270 cd         1 MW0      -0.192000
      4 C5          38.1910   -35.4460     9.9400 cd         1 MW0      -0.162000
      5 C4          39.2440   -36.1430     9.4110 cc         1 MW0       0.120300
      6 C7          40.4240   -35.6820     8.5880 c3         1 MW0       0.139300
      7 O3          39.1280   -37.4770     9.7420 os         1 MW0      -0.233000
      8 O8          40.0370   -35.3580     7.2430 oh         1 MW0      -0.648000
      9 H1          37.4270   -39.6520    10.1680 hc         1 MW0       0.053367
     10 H2          38.3540   -39.3640    11.6540 hc         1 MW0       0.053367
     11 H3          36.6450   -38.8960    11.5700 hc         1 MW0       0.053367
     12 H4          36.4650   -36.1680    11.1650 ha         1 MW0       0.139000
     13 H5          38.0190   -34.3790     9.8440 ha         1 MW0       0.139000
     14 H6          41.1850   -36.4740     8.5840 h1         1 MW0       0.035200
     15 H7          40.8670   -34.8040     9.0770 h1         1 MW0       0.035200
     16 H8          40.8520   -35.0730     6.7700 ho         1 MW0       0.444000
@<TRIPOS>BOND
     1     1     2 1   
     2     1     9 1   
     3     1    10 1   
     4     1    11 1   
     5     2     3 2   
     6     2     7 1   
     7     3     4 1   
     8     3    12 1   
     9     4     5 2   
    10     4    13 1   
    11     5     6 1   
    12     5     7 1   
    13     6     8 1   
    14     6    14 1   
    15     6    15 1   
    16     8    16 1   
@<TRIPOS>SUBSTRUCTURE
     1 MW0         1 TEMP              0 ****  ****    0 ROOT
