@<TRIPOS>MOLECULE
MW4
   40    41     1     0     0
SMALL
No Charge or Current Charge


@<TRIPOS>ATOM
      1 C12         -3.2960    -0.2110    -0.8490 ca         1 MW4      -0.176000
      2 C17         -4.6050     1.0090     1.3200 ca         1 MW4      -0.048000
      3 C18         -3.2280     0.7290     1.3890 ca         1 MW4      -0.181000
      4 C19          1.6990    -2.2210     0.4330 c6         1 MW4      -0.068400
      5 C20          3.0670    -2.1620     1.1310 c6         1 MW4      -0.106400
      6 C21          4.0980    -1.3500     0.3110 c6         1 MW4       0.102000
      7 C01          8.2250     0.9210    -0.3110 c3         1 MW4      -0.100100
      8 C02          6.8810     1.5380    -0.7290 c3         1 MW4       0.183600
      9 C04          4.5490     0.9680    -0.6010 c          1 MW4       0.641100
     10 C06          2.2040     0.1010    -0.5990 c6         1 MW4       0.107000
     11 C07          1.2060    -0.7810     0.1880 c6         1 MW4      -0.174700
     12 C08         -0.2240    -0.7050    -0.3830 c          1 MW4       0.612100
     13 C11         -2.5590     0.1180     0.3110 ca         1 MW4       0.013000
     14 C13         -4.6710     0.0690    -0.9180 ca         1 MW4       0.209000
     15 C15         -5.3300     0.6800     0.1650 ca         1 MW4       0.036000
     16 F14         -5.3560    -0.2550    -2.0380 f          1 MW4      -0.159000
     17 N05          3.6290    -0.0060    -0.1590 n          1 MW4      -0.391800
     18 N10         -1.1680    -0.1320     0.4600 ns         1 MW4      -0.142000
     19 O03          5.8460     0.6270    -0.3290 os         1 MW4      -0.459100
     20 O09         -0.4700    -1.1310    -1.5050 o          1 MW4      -0.572100
     21 O22          4.2150     2.0020    -1.1640 o          1 MW4      -0.546000
     22 Cl1         -7.0560     1.0360     0.0900 cl         1 MW4      -0.169000
     23 H1          -2.8300    -0.6820    -1.7070 ha         1 MW4       0.169000
     24 H2          -5.1080     1.4820     2.1610 ha         1 MW4       0.132000
     25 H3          -2.6790     0.9910     2.2920 ha         1 MW4       0.119000
     26 H4           1.7820    -2.7640    -0.5200 hc         1 MW4       0.057700
     27 H5           0.9820    -2.7730     1.0560 hc         1 MW4       0.057700
     28 H6           2.9550    -1.7050     2.1240 hc         1 MW4       0.052700
     29 H7           3.4480    -3.1780     1.3000 hc         1 MW4       0.052700
     30 H8           4.9990    -1.2380     0.9300 h1         1 MW4       0.064700
     31 H9           4.3890    -1.9370    -0.5720 h1         1 MW4       0.064700
     32 H10          9.0510     1.5820    -0.5960 hc         1 MW4       0.047367
     33 H11          8.2600     0.7730     0.7750 hc         1 MW4       0.047367
     34 H12          8.3740    -0.0480    -0.8020 hc         1 MW4       0.047367
     35 H13          6.7570     2.5130    -0.2390 h1         1 MW4       0.049700
     36 H14          6.8710     1.6910    -1.8170 h1         1 MW4       0.049700
     37 H15          2.1590    -0.1750    -1.6630 h1         1 MW4       0.078700
     38 H16          1.8780     1.1500    -0.5310 h1         1 MW4       0.078700
     39 H17          1.1440    -0.3210     1.1850 hc         1 MW4       0.062700
     40 H18         -0.7960     0.1650     1.3520 hn         1 MW4       0.157000
@<TRIPOS>BOND
     1     1    13 ar  
     2     1    14 ar  
     3     1    23 1   
     4     2     3 ar  
     5     2    15 ar  
     6     2    24 1   
     7     3    13 ar  
     8     3    25 1   
     9     4     5 1   
    10     4    11 1   
    11     4    26 1   
    12     4    27 1   
    13     5     6 1   
    14     5    28 1   
    15     5    29 1   
    16     6    17 1   
    17     6    30 1   
    18     6    31 1   
    19     7     8 1   
    20     7    32 1   
    21     7    33 1   
    22     7    34 1   
    23     8    19 1   
    24     8    35 1   
    25     8    36 1   
    26     9    17 1   
    27     9    19 1   
    28     9    21 2   
    29    10    11 1   
    30    10    17 1   
    31    10    37 1   
    32    10    38 1   
    33    11    12 1   
    34    11    39 1   
    35    12    18 1   
    36    12    20 2   
    37    13    18 1   
    38    14    15 ar  
    39    14    16 1   
    40    15    22 1   
    41    18    40 1   
@<TRIPOS>SUBSTRUCTURE
     1 MW4         1 TEMP              0 ****  ****    0 ROOT
