@<TRIPOS>MOLECULE
MW4
   40    41     1     0     0
SMALL
abcg2


@<TRIPOS>ATOM
      1 C12         -3.1230    -0.4510    -0.4380 ca         1 MW4      -0.176000
      2 C17         -4.0320     1.7040     1.0770 ca         1 MW4      -0.048000
      3 C18         -2.6930     1.3660     1.0820 ca         1 MW4      -0.181000
      4 C19          1.8510    -2.2520     0.4860 c6         1 MW4      -0.068400
      5 C20          3.3660    -2.2570     0.6640 c6         1 MW4      -0.106400
      6 C21          4.0640    -1.7520    -0.5930 c6         1 MW4       0.102000
      7 C01          7.5840     1.2500     0.4270 c3         1 MW4      -0.100100
      8 C02          6.2110     1.7120     0.0030 c3         1 MW4       0.183600
      9 C04          4.1730     0.7280    -0.6780 c          1 MW4       0.641100
     10 C06          2.1270    -0.4380    -1.2270 c6         1 MW4       0.107000
     11 C07          1.3560    -0.8770     0.0290 c6         1 MW4      -0.174700
     12 C08         -0.1260    -0.9060    -0.2800 c          1 MW4       0.612100
     13 C11         -2.2220     0.2890     0.3260 ca         1 MW4       0.013000
     14 C13         -4.4560    -0.0930    -0.4240 ca         1 MW4       0.209000
     15 C15         -4.9330     0.9720     0.3180 ca         1 MW4       0.036000
     16 F14         -5.3140    -0.8060    -1.1570 f          1 MW4      -0.159000
     17 N05          3.5500    -0.4410    -0.9620 n          1 MW4      -0.391800
     18 N10         -0.8570     0.0200     0.3950 ns         1 MW4      -0.142000
     19 O03          5.4330     0.5460    -0.2890 os         1 MW4      -0.459100
     20 O09         -0.5990    -1.6890    -1.0830 o          1 MW4      -0.572100
     21 O22          3.6600     1.8250    -0.7880 o          1 MW4      -0.546000
     22 CL1         -6.6090     1.3640     0.2870 cl         1 MW4      -0.169000
     23 H1          -2.8140    -1.2950    -1.0330 ha         1 MW4       0.169000
     24 H2          -4.3790     2.5420     1.6660 ha         1 MW4       0.132000
     25 H3          -2.0060     1.9480     1.6840 ha         1 MW4       0.119000
     26 H4           1.5770    -2.9970    -0.2670 hc         1 MW4       0.057700
     27 H5           1.3570    -2.5390     1.4160 hc         1 MW4       0.057700
     28 H6           3.6530    -1.6310     1.5150 hc         1 MW4       0.052700
     29 H7           3.7080    -3.2700     0.8850 hc         1 MW4       0.052700
     30 H8           5.1410    -1.7210    -0.4640 h1         1 MW4       0.064700
     31 H9           3.8610    -2.4340    -1.4250 h1         1 MW4       0.064700
     32 H10          8.1970     2.1190     0.6650 hc         1 MW4       0.047367
     33 H11          7.5380     0.6220     1.3170 hc         1 MW4       0.047367
     34 H12          8.0850     0.6950    -0.3660 hc         1 MW4       0.047367
     35 H13          5.7360     2.2880     0.8000 h1         1 MW4       0.049700
     36 H14          6.2740     2.3500    -0.8800 h1         1 MW4       0.049700
     37 H15          1.9270    -1.1400    -2.0400 h1         1 MW4       0.078700
     38 H16          1.8140     0.5500    -1.5580 h1         1 MW4       0.078700
     39 H17          1.5580    -0.1460     0.8200 hc         1 MW4       0.062700
     40 H18         -0.3420     0.6110     1.0300 hn         1 MW4       0.157000
@<TRIPOS>BOND
     1     1    13 ar  
     2     1    14 ar  
     3     1    23 1   
     4     2     3 ar  
     5     2    15 ar  
     6     2    24 1   
     7     3    13 ar  
     8     3    25 1   
     9     4     5 1   
    10     4    11 1   
    11     4    26 1   
    12     4    27 1   
    13     5     6 1   
    14     5    28 1   
    15     5    29 1   
    16     6    17 1   
    17     6    30 1   
    18     6    31 1   
    19     7     8 1   
    20     7    32 1   
    21     7    33 1   
    22     7    34 1   
    23     8    19 1   
    24     8    35 1   
    25     8    36 1   
    26     9    17 1   
    27     9    19 1   
    28     9    21 2   
    29    10    11 1   
    30    10    17 1   
    31    10    37 1   
    32    10    38 1   
    33    11    12 1   
    34    11    39 1   
    35    12    18 1   
    36    12    20 2   
    37    13    18 1   
    38    14    15 ar  
    39    14    16 1   
    40    15    22 1   
    41    18    40 1   
@<TRIPOS>SUBSTRUCTURE
     1 MW4         1 TEMP              0 ****  ****    0 ROOT
