@<TRIPOS>MOLECULE
MW5
   27    29     1     0     0
SMALL
No Charge or Current Charge


@<TRIPOS>ATOM
      1 O            0.5390    -2.0560     1.1760 o          1 MW5      -0.481000
      2 C5           0.9480    -0.9950     0.7130 c          1 MW5       0.556000
      3 N2           2.1790    -0.8660     0.0680 n          1 MW5       0.078000
      4 N3           3.1150    -1.8570    -0.1570 n2         1 MW5      -0.445800
      5 C1           4.0670    -1.1960    -0.7820 cc         1 MW5       0.428400
      6 C4           0.2170     0.3020     0.7650 cc         1 MW5      -0.289400
      7 C3           0.7590     1.4790     0.2220 cd         1 MW5       0.397600
      8 Cl          -0.0770     3.0000     0.2880 cl         1 MW5      -0.143000
      9 N4           2.0190     1.4880    -0.4020 nd         1 MW5      -0.378600
     10 C2           2.6000     0.3090    -0.4170 cc         1 MW5       0.048000
     11 N1           3.8210     0.1600    -0.9820 na         1 MW5      -0.360500
     12 C6          -1.1450     0.2240     1.4380 c3         1 MW5       0.042100
     13 C7          -2.2360    -0.2730     0.4940 ca         1 MW5      -0.082300
     14 C12         -2.6670    -1.6150     0.5450 ca         1 MW5      -0.097500
     15 C11         -3.6690    -2.0740    -0.3270 ca         1 MW5      -0.113000
     16 C10         -4.2500    -1.1960    -1.2560 ca         1 MW5      -0.110000
     17 C9          -3.8290     0.1430    -1.3110 ca         1 MW5      -0.113000
     18 C8          -2.8260     0.6020    -0.4390 ca         1 MW5      -0.097500
     19 H1           4.9840    -1.6610    -1.1230 h5         1 MW5       0.078100
     20 HA           4.4110     0.8470    -1.4330 hn         1 MW5       0.396000
     21 H61C        -1.0940    -0.4210     2.3250 hc         1 MW5       0.064200
     22 H62C        -1.4340     1.2010     1.8430 hc         1 MW5       0.064200
     23 H12         -2.2250    -2.3050     1.2610 ha         1 MW5       0.114500
     24 H8          -2.5120     1.6420    -0.4910 ha         1 MW5       0.114500
     25 H11         -3.9950    -3.1110    -0.2820 ha         1 MW5       0.110500
     26 H10         -5.0260    -1.5510    -1.9310 ha         1 MW5       0.110000
     27 H9          -4.2790     0.8250    -2.0290 ha         1 MW5       0.110500
@<TRIPOS>BOND
     1     1     2 2   
     2     2     3 1   
     3     2     6 1   
     4     3     4 1   
     5     3    10 1   
     6     4     5 2   
     7     5    11 1   
     8     5    19 1   
     9     6     7 2   
    10     6    12 1   
    11     7     8 1   
    12     7     9 1   
    13     9    10 2   
    14    10    11 1   
    15    11    20 1   
    16    12    13 1   
    17    12    21 1   
    18    12    22 1   
    19    13    14 ar  
    20    13    18 ar  
    21    14    15 ar  
    22    14    23 1   
    23    15    16 ar  
    24    15    25 1   
    25    16    17 ar  
    26    16    26 1   
    27    17    18 ar  
    28    17    27 1   
    29    18    24 1   
@<TRIPOS>SUBSTRUCTURE
     1 MW5         1 TEMP              0 ****  ****    0 ROOT
