@<TRIPOS>MOLECULE
MW5
   27    29     1     0     0
SMALL
bcc


@<TRIPOS>ATOM
      1 O            0.4960    -2.0610     0.8920 o          1 MW5      -0.556500
      2 C5           0.8760    -0.9480     0.5910 c          1 MW5       0.631500
      3 N2           2.1110    -0.7630    -0.0450 n          1 MW5       0.027300
      4 N3           2.9670    -1.7610    -0.3810 n2         1 MW5      -0.445800
      5 C1           3.9590    -1.1460    -0.9300 cc         1 MW5       0.428400
      6 C4           0.1900     0.2990     0.8160 cc         1 MW5      -0.289400
      7 C3           0.7950     1.4630     0.4090 cd         1 MW5       0.322000
      8 CL           0.0020     2.9820     0.6610 cl         1 MW5      -0.067400
      9 N4           1.9830     1.5890    -0.1920 nd         1 MW5      -0.378600
     10 C2           2.5850     0.4540    -0.3920 cc         1 MW5       0.149400
     11 N1           3.7800     0.1990    -0.9640 na         1 MW5      -0.360900
     12 C6          -1.1580     0.1970     1.4670 c3         1 MW5       0.042100
     13 C7          -2.2160    -0.3090     0.5140 ca         1 MW5      -0.082300
     14 C12         -2.8100    -1.5520     0.7060 ca         1 MW5      -0.115500
     15 C11         -3.7840    -2.0200    -0.1680 ca         1 MW5      -0.131000
     16 C10         -4.1720    -1.2480    -1.2540 ca         1 MW5      -0.128000
     17 C9          -3.5830    -0.0060    -1.4570 ca         1 MW5      -0.131000
     18 C8          -2.6130     0.4580    -0.5800 ca         1 MW5      -0.115500
     19 H1           4.8370    -1.6300    -1.3240 h5         1 MW5       0.078100
     20 HA           4.4160     0.8880    -1.3400 hn         1 MW5       0.345700
     21 H61C        -1.0920    -0.4790     2.3210 hc         1 MW5       0.064200
     22 H62C        -1.4570     1.1660     1.8660 hc         1 MW5       0.064200
     23 H12         -2.5050    -2.1620     1.5470 ha         1 MW5       0.132500
     24 H8          -2.1650     1.4300    -0.7510 ha         1 MW5       0.132500
     25 H11         -4.2330    -2.9900    -0.0020 ha         1 MW5       0.128500
     26 H10         -4.9290    -1.6120    -1.9380 ha         1 MW5       0.128000
     27 H9          -3.8840     0.6050    -2.2990 ha         1 MW5       0.128500
@<TRIPOS>BOND
     1     1     2 2   
     2     2     3 1   
     3     2     6 1   
     4     3     4 1   
     5     3    10 1   
     6     4     5 2   
     7     5    11 1   
     8     5    19 1   
     9     6     7 2   
    10     6    12 1   
    11     7     8 1   
    12     7     9 1   
    13     9    10 2   
    14    10    11 1   
    15    11    20 1   
    16    12    13 1   
    17    12    21 1   
    18    12    22 1   
    19    13    14 ar  
    20    13    18 ar  
    21    14    15 ar  
    22    14    23 1   
    23    15    16 ar  
    24    15    25 1   
    25    16    17 ar  
    26    16    26 1   
    27    17    18 ar  
    28    17    27 1   
    29    18    24 1   
@<TRIPOS>SUBSTRUCTURE
     1 MW5         1 TEMP              0 ****  ****    0 ROOT
