@<TRIPOS>MOLECULE
MW6
   31    32     1     0     0
SMALL
No Charge or Current Charge


@<TRIPOS>ATOM
      1 N1          23.8900    15.7500    -8.0080 ns         1 MW6      -0.483500
      2 C4          22.6660    16.3460    -7.9330 c          1 MW6       0.578000
      3 C5          22.5910    17.6480    -7.1330 c6         1 MW6      -0.164400
      4 C6          26.4740    18.2430    -7.3160 c3         1 MW6       0.057600
      5 C7          28.2360    19.1530    -9.4490 ca         1 MW6      -0.042000
      6 C8          29.0940    19.5550    -8.4030 ca         1 MW6      -0.167000
      7 C10         30.6980    20.3940   -10.0310 ca         1 MW6      -0.181000
      8 C1          23.9020    18.4600    -7.2080 c6         1 MW6      -0.073400
      9 C2          25.1390    17.5770    -6.8660 c6         1 MW6      -0.132700
     10 C3          25.0540    16.1270    -7.4000 c          1 MW6       0.581000
     11 S1          26.6520    18.3570    -9.1570 ss         1 MW6      -0.177000
     12 O1          25.9810    15.3410    -7.3010 o          1 MW6      -0.504000
     13 O2          21.7020    15.8820    -8.5190 o          1 MW6      -0.514000
     14 C9          30.3220    20.1740    -8.6960 ca         1 MW6      -0.057000
     15 C11         29.8500    19.9970   -11.0740 ca         1 MW6       0.306000
     16 C12         28.6250    19.3790   -10.7810 ca         1 MW6      -0.169000
     17 N2          30.2200    20.2110   -12.3740 nv         1 MW6      -1.075000
     18 H4          23.9090    14.8510    -8.4650 hn         1 MW6       0.330500
     19 H6          21.7010    18.2240    -7.4220 hc         1 MW6       0.080200
     20 H5          22.4670    17.3500    -6.0830 hc         1 MW6       0.080200
     21 H8          27.3160    17.6600    -6.9210 h1         1 MW6       0.077700
     22 H7          26.5290    19.2540    -6.8920 h1         1 MW6       0.077700
     23 H9          28.8300    19.3970    -7.3630 ha         1 MW6       0.112000
     24 H11         31.6480    20.8740   -10.2500 ha         1 MW6       0.114000
     25 H2          23.8550    19.3290    -6.5360 hc         1 MW6       0.067700
     26 H1          23.9940    18.8660    -8.2260 hc         1 MW6       0.067700
     27 H3          25.2100    17.4810    -5.7740 hc         1 MW6       0.077700
     28 H10         30.9810    20.4830    -7.8870 ha         1 MW6       0.110000
     29 H12         27.9690    19.0730   -11.5910 ha         1 MW6       0.122000
     30 H13         31.1670    20.5190   -12.5850 hn         1 MW6       0.450500
     31 H14         29.6820    19.7910   -13.1300 hn         1 MW6       0.450500
@<TRIPOS>BOND
     1     1     2 1   
     2     1    10 1   
     3     1    18 1   
     4     2     3 1   
     5     2    13 2   
     6     3     8 1   
     7     3    19 1   
     8     3    20 1   
     9     4     9 1   
    10     4    11 1   
    11     4    21 1   
    12     4    22 1   
    13     5     6 ar  
    14     5    11 1   
    15     5    16 ar  
    16     6    14 ar  
    17     6    23 1   
    18     7    14 ar  
    19     7    15 ar  
    20     7    24 1   
    21     8     9 1   
    22     8    25 1   
    23     8    26 1   
    24     9    10 1   
    25     9    27 1   
    26    10    12 2   
    27    14    28 1   
    28    15    16 ar  
    29    15    17 1   
    30    16    29 1   
    31    17    30 1   
    32    17    31 1   
@<TRIPOS>SUBSTRUCTURE
     1 MW6         1 TEMP              0 ****  ****    0 ROOT
