@<TRIPOS>MOLECULE
MW6
   31    32     1     0     0
SMALL
bcc


@<TRIPOS>ATOM
      1 N1          23.8700    15.7060    -7.9650 ns         1 MW6      -0.617500
      2 C4          22.6400    16.2420    -7.6350 c          1 MW6       0.720500
      3 C5          22.6660    17.6040    -7.0010 c6         1 MW6      -0.164400
      4 C6          26.4480    18.3550    -7.4050 c3         1 MW6       0.009700
      5 C7          28.1700    19.3620    -9.3870 ca         1 MW6       0.084900
      6 C8          29.0280    19.6740    -8.3360 ca         1 MW6      -0.185000
      7 C10         30.7360    20.2830    -9.9420 ca         1 MW6      -0.199000
      8 C1          23.8920    18.4040    -7.4030 c6         1 MW6      -0.073400
      9 C2          25.1570    17.6090    -7.1020 c6         1 MW6      -0.132700
     10 C3          25.1220    16.2430    -7.7540 c          1 MW6       0.723500
     11 S1          26.5140    18.8030    -9.1630 ss         1 MW6      -0.256000
     12 O1          26.1110    15.6160    -8.0530 o          1 MW6      -0.579500
     13 O2          21.6290    15.6120    -7.8430 o          1 MW6      -0.589500
     14 C9          30.3080    20.1260    -8.6370 ca         1 MW6      -0.075000
     15 C11         29.8710    19.9810   -11.0040 ca         1 MW6       0.167600
     16 C12         28.5900    19.5110   -10.7070 ca         1 MW6      -0.187000
     17 N2          30.2610    20.1850   -12.3090 nv         1 MW6      -0.826200
     18 H4          23.8530    14.7790    -8.3750 hn         1 MW6       0.330500
     19 H6          21.7420    18.1190    -7.2620 hc         1 MW6       0.080200
     20 H5          22.6520    17.4570    -5.9160 hc         1 MW6       0.080200
     21 H8          27.3110    17.7370    -7.1590 h1         1 MW6       0.077700
     22 H7          26.4830    19.2540    -6.7890 h1         1 MW6       0.077700
     23 H9          28.7220    19.5790    -7.3050 ha         1 MW6       0.130000
     24 H11         31.7380    20.6380   -10.1490 ha         1 MW6       0.132000
     25 H2          23.9170    19.3450    -6.8540 hc         1 MW6       0.067700
     26 H1          23.8340    18.6560    -8.4650 hc         1 MW6       0.067700
     27 H3          25.1710    17.4100    -6.0210 hc         1 MW6       0.077700
     28 H10         30.9860    20.3640    -7.8270 ha         1 MW6       0.128000
     29 H12         27.9180    19.2530   -11.5200 ha         1 MW6       0.140000
     30 H13         31.2550    20.1720   -12.4750 hn         1 MW6       0.395300
     31 H14         29.7560    19.6660   -13.0080 hn         1 MW6       0.395300
@<TRIPOS>BOND
     1     1     2 1   
     2     1    10 1   
     3     1    18 1   
     4     2     3 1   
     5     2    13 2   
     6     3     8 1   
     7     3    19 1   
     8     3    20 1   
     9     4     9 1   
    10     4    11 1   
    11     4    21 1   
    12     4    22 1   
    13     5     6 ar  
    14     5    11 1   
    15     5    16 ar  
    16     6    14 ar  
    17     6    23 1   
    18     7    14 ar  
    19     7    15 ar  
    20     7    24 1   
    21     8     9 1   
    22     8    25 1   
    23     8    26 1   
    24     9    10 1   
    25     9    27 1   
    26    10    12 2   
    27    14    28 1   
    28    15    16 ar  
    29    15    17 1   
    30    16    29 1   
    31    17    30 1   
    32    17    31 1   
@<TRIPOS>SUBSTRUCTURE
     1 MW6         1 TEMP              0 ****  ****    0 ROOT
