@<TRIPOS>MOLECULE
MW7
   18    18     1     0     0
SMALL
No Charge or Current Charge


@<TRIPOS>ATOM
      1 C01          7.6680    16.6350   -59.7010 c2         1 MW7      -0.364000
      2 C02          8.4120    17.6800   -59.2750 ce         1 MW7      -0.118200
      3 C03          8.3800    19.0700   -59.8230 ca         1 MW7      -0.107800
      4 C04          9.2260    20.0430   -59.2600 ca         1 MW7      -0.122000
      5 C05          9.2300    21.3630   -59.7440 ca         1 MW7      -0.097000
      6 C06          8.3820    21.7460   -60.8090 ca         1 MW7      -0.118600
      7 C07          7.5340    20.7650   -61.3720 ca         1 MW7      -0.097000
      8 C08          7.5320    19.4450   -60.8860 ca         1 MW7      -0.122000
      9 C09          8.3840    23.1750   -61.3350 c          1 MW7       0.712600
     10 O10          9.1350    23.9900   -60.8170 o          1 MW7      -0.719500
     11 O11          7.6330    23.4610   -62.2580 o          1 MW7      -0.719500
     12 H1           6.9480    16.7110   -60.5150 ha         1 MW7       0.150500
     13 H2           7.7620    15.6530   -59.2350 ha         1 MW7       0.150500
     14 H3           9.1150    17.5320   -58.4530 ha         1 MW7       0.151000
     15 H4           9.8900    19.7790   -58.4400 ha         1 MW7       0.085000
     16 H5           9.8970    22.0900   -59.2850 ha         1 MW7       0.126000
     17 H6           6.8680    21.0230   -62.1920 ha         1 MW7       0.126000
     18 H7           6.8640    18.7250   -61.3470 ha         1 MW7       0.085000
@<TRIPOS>BOND
     1     1     2 2   
     2     1    12 1   
     3     1    13 1   
     4     2     3 1   
     5     2    14 1   
     6     3     4 ar  
     7     3     8 ar  
     8     4     5 ar  
     9     4    15 1   
    10     5     6 ar  
    11     5    16 1   
    12     6     7 ar  
    13     6     9 1   
    14     7     8 ar  
    15     7    17 1   
    16     8    18 1   
    17     9    10 1   
    18     9    11 1   
@<TRIPOS>SUBSTRUCTURE
     1 MW7         1 TEMP              0 ****  ****    0 ROOT
