@<TRIPOS>MOLECULE
MW7
   18    18     1     0     0
SMALL
abcg2


@<TRIPOS>ATOM
      1 C01          7.7090    16.6560   -59.7220 c2         1 MW7      -0.364000
      2 C02          8.3930    17.7120   -59.2820 ce         1 MW7      -0.118200
      3 C03          8.3530    19.0760   -59.8180 ca         1 MW7      -0.107800
      4 C04          9.2070    20.0400   -59.2790 ca         1 MW7      -0.122000
      5 C05          9.2180    21.3410   -59.7590 ca         1 MW7      -0.097000
      6 C06          8.3790    21.7270   -60.8000 ca         1 MW7      -0.118600
      7 C07          7.5210    20.7670   -61.3360 ca         1 MW7      -0.097000
      8 C08          7.5010    19.4700   -60.8550 ca         1 MW7      -0.122000
      9 C09          8.4030    23.1540   -61.3400 c          1 MW7       0.712600
     10 O10          9.1380    23.9610   -60.7390 o          1 MW7      -0.719500
     11 O11          7.6910    23.3830   -62.3360 o          1 MW7      -0.719500
     12 H1           7.0220    16.7030   -60.5570 ha         1 MW7       0.150500
     13 H2           7.8220    15.6900   -59.2490 ha         1 MW7       0.150500
     14 H3           9.0670    17.5720   -58.4420 ha         1 MW7       0.151000
     15 H4           9.8760    19.7620   -58.4720 ha         1 MW7       0.085000
     16 H5           9.8910    22.0660   -59.3210 ha         1 MW7       0.126000
     17 H6           6.8560    21.0440   -62.1430 ha         1 MW7       0.126000
     18 H7           6.8130    18.7590   -61.2960 ha         1 MW7       0.085000
@<TRIPOS>BOND
     1     1     2 2   
     2     1    12 1   
     3     1    13 1   
     4     2     3 1   
     5     2    14 1   
     6     3     4 ar  
     7     3     8 ar  
     8     4     5 ar  
     9     4    15 1   
    10     5     6 ar  
    11     5    16 1   
    12     6     7 ar  
    13     6     9 1   
    14     7     8 ar  
    15     7    17 1   
    16     8    18 1   
    17     9    10 1   
    18     9    11 1   
@<TRIPOS>SUBSTRUCTURE
     1 MW7         1 TEMP              0 ****  ****    0 ROOT
