@<TRIPOS>MOLECULE
MW8
   59    63     1     0     0
SMALL
bcc


@<TRIPOS>ATOM
      1 C2         -43.5870   339.5980   433.7480 ca         1 MW8      -0.012900
      2 C3         -43.7100   340.7510   434.5120 ca         1 MW8      -0.106000
      3 C4         -43.9210   341.9620   433.8780 ca         1 MW8      -0.105000
      4 C5         -44.0110   342.0410   432.4860 ca         1 MW8      -0.113500
      5 C6         -43.8790   340.8680   431.7400 ca         1 MW8      -0.105000
      6 C8         -44.2420   343.3260   431.8490 cc         1 MW8       0.314200
      7 C9         -44.4160   344.5850   432.3480 cd         1 MW8      -0.271300
      8 C10        -44.6230   345.4280   431.2320 cd         1 MW8      -0.212300
      9 O12        -44.3190   343.3580   430.5130 os         1 MW8      -0.285800
     10 O14        -44.2640   343.8410   427.9510 o          1 MW8      -0.566100
     11 C16        -44.9720   346.1940   426.7000 c3         1 MW8       0.058700
     12 C20        -48.9050   346.1840   425.1380 ca         1 MW8      -0.246300
     13 C21        -48.1570   347.3430   425.0070 ca         1 MW8      -0.092000
     14 C22        -46.8650   347.3630   425.5140 ca         1 MW8      -0.233300
     15 C23        -45.5450   347.0250   428.9180 ca         1 MW8      -0.012400
     16 C24        -44.8040   348.1670   429.1980 ca         1 MW8      -0.091000
     17 C25        -45.3310   349.1780   429.9780 ca         1 MW8      -0.189500
     18 C26        -46.6310   349.0880   430.5080 ca         1 MW8       0.176600
     19 C27        -47.3790   347.9470   430.1780 ca         1 MW8      -0.189500
     20 C28        -46.8420   346.9380   429.3970 ca         1 MW8      -0.091000
     21 C30        -46.8680   351.4690   431.0150 c6         1 MW8       0.204800
     22 C31        -47.0610   352.3540   432.2310 c6         1 MW8       0.148300
     23 C33        -48.5870   350.7980   433.1610 c6         1 MW8       0.148300
     24 C34        -48.4190   349.8720   431.9690 c6         1 MW8       0.204800
     25 C7         -43.6690   339.6500   432.3650 ca         1 MW8      -0.106000
     26 C19        -48.3200   345.0970   425.7730 ca         1 MW8       0.402200
     27 C11        -44.5550   344.6330   430.1230 cc         1 MW8       0.186200
     28 C17        -46.3670   346.2210   426.1280 ca         1 MW8       0.384600
     29 C13        -44.6010   344.7830   428.6510 c          1 MW8       0.618600
     30 N18        -47.0860   345.1090   426.2550 nb         1 MW8      -0.651000
     31 N32        -48.4020   352.1750   432.7520 n7         1 MW8      -0.803200
     32 N29        -47.1240   350.0740   431.3470 nh         1 MW8      -0.662000
     33 N15        -44.9860   345.9800   428.1380 n          1 MW8      -0.381000
     34 BR1        -43.3070   337.9430   434.6070 br         1 MW8      -0.095100
     35 H1         -43.6450   340.7170   435.5910 ha         1 MW8       0.149500
     36 H2         -44.0160   342.8530   434.4850 ha         1 MW8       0.147500
     37 H3         -43.9420   340.8890   430.6610 ha         1 MW8       0.147500
     38 H4         -44.4060   344.8840   433.3830 ha         1 MW8       0.161000
     39 H5         -44.7930   346.4900   431.2740 ha         1 MW8       0.171000
     40 H6         -44.3940   345.3990   426.2320 h1         1 MW8       0.073700
     41 H7         -44.4650   347.1370   426.4900 h1         1 MW8       0.073700
     42 H9         -48.5710   348.2180   424.5250 ha         1 MW8       0.137000
     43 H10        -46.2520   348.2520   425.4400 ha         1 MW8       0.140000
     44 H11        -43.7890   348.2550   428.8300 ha         1 MW8       0.143500
     45 H12        -44.7020   350.0270   430.2030 ha         1 MW8       0.135500
     46 H13        -48.4000   347.8350   430.5150 ha         1 MW8       0.135500
     47 H14        -47.4430   346.0660   429.1690 ha         1 MW8       0.143500
     48 H15        -45.8510   351.5960   430.6550 h1         1 MW8       0.045950
     49 H16        -47.5430   351.8010   430.2140 h1         1 MW8       0.045950
     50 H17        -46.2810   352.1130   432.9710 h1         1 MW8       0.040200
     51 H18        -46.9200   353.3950   431.9340 h1         1 MW8       0.040200
     52 H19        -49.5930   350.6660   433.5630 h1         1 MW8       0.040200
     53 H20        -47.8760   350.4890   433.9430 h1         1 MW8       0.040200
     54 H21        -49.2400   350.0350   431.2550 h1         1 MW8       0.045950
     55 H22        -48.4930   348.8460   432.3280 h1         1 MW8       0.045950
     56 H23        -43.5720   338.7540   431.7670 ha         1 MW8       0.149500
     57 H24        -48.8760   344.1730   425.8930 h4         1 MW8       0.021100
     58 H25        -48.5490   352.7900   433.5410 hn         1 MW8       0.359800
     59 H8         -49.9160   346.1190   424.7620 ha         1 MW8       0.141000
@<TRIPOS>BOND
     1     1     2 ar  
     2     1    25 ar  
     3     1    34 1   
     4     2     3 ar  
     5     2    35 1   
     6     3     4 ar  
     7     3    36 1   
     8     4     5 ar  
     9     4     6 1   
    10     5    25 ar  
    11     5    37 1   
    12     6     7 2   
    13     6     9 1   
    14     7     8 1   
    15     7    38 1   
    16     8    27 2   
    17     8    39 1   
    18     9    27 1   
    19    10    29 2   
    20    11    28 1   
    21    11    33 1   
    22    11    40 1   
    23    11    41 1   
    24    12    13 ar  
    25    12    26 ar  
    26    12    59 1   
    27    13    14 ar  
    28    13    42 1   
    29    14    28 ar  
    30    14    43 1   
    31    15    16 ar  
    32    15    20 ar  
    33    15    33 1   
    34    16    17 ar  
    35    16    44 1   
    36    17    18 ar  
    37    17    45 1   
    38    18    19 ar  
    39    18    32 1   
    40    19    20 ar  
    41    19    46 1   
    42    20    47 1   
    43    21    22 1   
    44    21    32 1   
    45    21    48 1   
    46    21    49 1   
    47    22    31 1   
    48    22    50 1   
    49    22    51 1   
    50    23    24 1   
    51    23    31 1   
    52    23    52 1   
    53    23    53 1   
    54    24    32 1   
    55    24    54 1   
    56    24    55 1   
    57    25    56 1   
    58    26    30 ar  
    59    26    57 1   
    60    27    29 1   
    61    28    30 ar  
    62    29    33 1   
    63    31    58 1   
@<TRIPOS>SUBSTRUCTURE
     1 MW8         1 TEMP              0 ****  ****    0 ROOT
