@<TRIPOS>MOLECULE
MW8
   59    63     1     0     0
SMALL
No Charge or Current Charge


@<TRIPOS>ATOM
      1 C2         -44.1060   339.8360   434.0900 ca         1 MW8      -0.012900
      2 C3         -44.0480   341.1090   434.6750 ca         1 MW8      -0.088000
      3 C4         -44.1690   342.2590   433.8740 ca         1 MW8      -0.087000
      4 C5         -44.3470   342.1450   432.4760 ca         1 MW8      -0.113500
      5 C6         -44.4060   340.8560   431.9020 ca         1 MW8      -0.087000
      6 C8         -44.4760   343.3310   431.6190 cc         1 MW8       0.204500
      7 C9         -44.2650   344.6280   431.9930 cd         1 MW8      -0.188000
      8 C10        -44.4780   345.4080   430.8360 cd         1 MW8      -0.129000
      9 O12        -44.7950   343.2480   430.2860 os         1 MW8      -0.197000
     10 O14        -45.1220   343.9430   427.5310 o          1 MW8      -0.566100
     11 C16        -45.0980   346.5400   426.5380 c3         1 MW8       0.058700
     12 C20        -48.1750   345.3320   423.8110 ca         1 MW8      -0.163000
     13 C21        -48.5750   345.8720   425.0430 ca         1 MW8      -0.074000
     14 C22        -47.5760   346.2690   425.9450 ca         1 MW8      -0.150000
     15 C23        -45.8260   347.2450   428.8260 ca         1 MW8      -0.105000
     16 C24        -45.1490   348.4780   428.9210 ca         1 MW8      -0.073000
     17 C25        -45.5600   349.4460   429.8530 ca         1 MW8      -0.171500
     18 C26        -46.6220   349.1920   430.7380 ca         1 MW8       0.315000
     19 C27        -47.2540   347.9340   430.6880 ca         1 MW8      -0.171500
     20 C28        -46.8470   346.9630   429.7570 ca         1 MW8      -0.073000
     21 C30        -47.3750   351.5590   431.1990 c6         1 MW8       0.204800
     22 C31        -47.2370   352.6390   432.3250 c6         1 MW8       0.148300
     23 C33        -47.5380   350.9230   434.0570 c6         1 MW8       0.148300
     24 C34        -47.6810   349.8100   432.9630 c6         1 MW8       0.204800
     25 C7         -44.2850   339.7070   432.7040 ca         1 MW8      -0.088000
     26 C19        -46.8040   345.2130   423.5280 ca         1 MW8       0.336900
     27 C11        -44.8260   344.5480   429.8130 cc         1 MW8       0.076500
     28 C17        -46.2190   346.1080   425.5930 ca         1 MW8       0.319300
     29 C13        -45.1030   344.8430   428.3660 c          1 MW8       0.551600
     30 N18        -45.8390   345.5960   424.3960 nb         1 MW8      -0.651000
     31 N32        -47.9580   352.2720   433.5790 n7         1 MW8      -0.858400
     32 N29        -47.0130   350.1810   431.6710 nh         1 MW8      -0.800400
     33 N15        -45.3130   346.2000   427.9730 n          1 MW8      -0.221400
     34 Br1        -43.9430   338.2730   435.1810 br         1 MW8      -0.095100
     35 H1         -43.9120   341.2090   435.7500 ha         1 MW8       0.131500
     36 H2         -44.1270   343.2330   434.3540 ha         1 MW8       0.129500
     37 H3         -44.5430   340.7370   430.8290 ha         1 MW8       0.129500
     38 H4         -43.9700   344.9920   432.9700 ha         1 MW8       0.143000
     39 H5         -44.3500   346.4830   430.7740 ha         1 MW8       0.153000
     40 H6         -44.1550   346.0840   426.2130 h1         1 MW8       0.073700
     41 H7         -44.9770   347.6240   426.4290 h1         1 MW8       0.073700
     42 H9         -49.6290   345.9820   425.2910 ha         1 MW8       0.119000
     43 H10        -47.8480   346.6980   426.9050 ha         1 MW8       0.122000
     44 H11        -44.2940   348.6890   428.2820 ha         1 MW8       0.125500
     45 H12        -45.0290   350.3920   429.9050 ha         1 MW8       0.117500
     46 H13        -48.0680   347.7000   431.3670 ha         1 MW8       0.117500
     47 H14        -47.3450   345.9960   429.7480 ha         1 MW8       0.125500
     48 H15        -46.7420   351.8620   430.3520 h1         1 MW8       0.045950
     49 H16        -48.4140   351.5600   430.8370 h1         1 MW8       0.045950
     50 H17        -46.1680   352.7720   432.5530 h1         1 MW8       0.040200
     51 H18        -47.6120   353.6030   431.9530 h1         1 MW8       0.040200
     52 H19        -48.1310   350.6430   434.9400 h1         1 MW8       0.040200
     53 H20        -46.4850   350.9680   434.3730 h1         1 MW8       0.040200
     54 H21        -48.7510   349.6260   432.7860 h1         1 MW8       0.045950
     55 H22        -47.2490   348.8800   433.3610 h1         1 MW8       0.045950
     56 H23        -44.3310   338.7200   432.2500 ha         1 MW8       0.131500
     57 H24        -46.4670   344.8010   422.5770 h4         1 MW8       0.021100
     58 H25        -47.7460   352.9680   434.3060 hn         1 MW8       0.415000
     59 H8         -48.9110   345.0100   423.0790 ha         1 MW8       0.123000
@<TRIPOS>BOND
     1     1     2 ar  
     2     1    25 ar  
     3     1    34 1   
     4     2     3 ar  
     5     2    35 1   
     6     3     4 ar  
     7     3    36 1   
     8     4     5 ar  
     9     4     6 1   
    10     5    25 ar  
    11     5    37 1   
    12     6     7 2   
    13     6     9 1   
    14     7     8 1   
    15     7    38 1   
    16     8    27 2   
    17     8    39 1   
    18     9    27 1   
    19    10    29 2   
    20    11    28 1   
    21    11    33 1   
    22    11    40 1   
    23    11    41 1   
    24    12    13 ar  
    25    12    26 ar  
    26    12    59 1   
    27    13    14 ar  
    28    13    42 1   
    29    14    28 ar  
    30    14    43 1   
    31    15    16 ar  
    32    15    20 ar  
    33    15    33 1   
    34    16    17 ar  
    35    16    44 1   
    36    17    18 ar  
    37    17    45 1   
    38    18    19 ar  
    39    18    32 1   
    40    19    20 ar  
    41    19    46 1   
    42    20    47 1   
    43    21    22 1   
    44    21    32 1   
    45    21    48 1   
    46    21    49 1   
    47    22    31 1   
    48    22    50 1   
    49    22    51 1   
    50    23    24 1   
    51    23    31 1   
    52    23    52 1   
    53    23    53 1   
    54    24    32 1   
    55    24    54 1   
    56    24    55 1   
    57    25    56 1   
    58    26    30 ar  
    59    26    57 1   
    60    27    29 1   
    61    28    30 ar  
    62    29    33 1   
    63    31    58 1   
@<TRIPOS>SUBSTRUCTURE
     1 MW8         1 TEMP              0 ****  ****    0 ROOT
