@<TRIPOS>MOLECULE
MW9
  133   132     1     0     0
SMALL
No Charge or Current Charge


@<TRIPOS>ATOM
      1 C           38.1280    26.1530    34.4260 c3         1 MW9      -0.094100
      2 O           27.3190    25.9010    35.4660 o          1 MW9      -0.493000
      3 C1          37.0210    26.0280    35.4910 c3         1 MW9      -0.071400
      4 C10         29.2810    25.7860    40.0590 c3         1 MW9      -0.078400
      5 C11         29.1080    24.2910    40.4390 c3         1 MW9      -0.065400
      6 C12         29.0730    23.2930    39.2540 c3         1 MW9      -0.073400
      7 C13         27.9470    23.5730    38.2340 c3         1 MW9      -0.077400
      8 C14         27.8020    22.4720    37.1550 c3         1 MW9      -0.085400
      9 C15         26.7190    22.7720    36.0860 c3         1 MW9      -0.045400
     10 C16         27.2090    23.5550    34.8390 c3         1 MW9      -0.152400
     11 C17         27.9110    24.8720    35.1720 c          1 MW9       0.615100
     12 C18         30.1230    25.8940    35.3010 c3         1 MW9       0.140600
     13 C19         30.4180    26.5940    33.9410 c3         1 MW9       0.116300
     14 C2          36.0950    27.2630    35.5430 c3         1 MW9      -0.089400
     15 C20         31.7130    27.4510    34.0440 c3         1 MW9       0.240600
     16 C21         34.3360    25.5000    31.7270 c3         1 MW9       0.259600
     17 C22         34.1640    24.6930    33.0560 c3         1 MW9       0.134300
     18 C23         34.9010    23.3230    33.0060 c3         1 MW9       0.119600
     19 C25         27.2330    28.1220    32.6160 c3         1 MW9      -0.146400
     20 C26         27.4340    28.8780    31.2830 c3         1 MW9      -0.071400
     21 C27         26.4030    30.0090    31.0700 c3         1 MW9      -0.080400
     22 C28         26.5770    30.7410    29.7200 c3         1 MW9      -0.077400
     23 C29         25.5550    31.8870    29.5300 c3         1 MW9      -0.074400
     24 C3          34.9430    27.1120    36.5610 c3         1 MW9      -0.077400
     25 C30         25.7240    32.6840    28.2140 c3         1 MW9      -0.080400
     26 C31         25.4480    31.8690    26.9250 c3         1 MW9      -0.047200
     27 C32         25.3730    32.7510    25.6880 c2         1 MW9      -0.214200
     28 C33         24.3240    33.4980    25.2950 c2         1 MW9      -0.230200
     29 C34         22.9900    33.6330    26.0100 c3         1 MW9      -0.049200
     30 C35         22.8360    35.0090    26.7000 c3         1 MW9      -0.072400
     31 C36         21.6740    35.0890    27.7210 c3         1 MW9      -0.079400
     32 C37         21.9140    34.2740    29.0170 c3         1 MW9      -0.077400
     33 C38         20.7650    34.4030    30.0400 c3         1 MW9      -0.080400
     34 C39         20.9950    33.5500    31.3080 c3         1 MW9      -0.080400
     35 C4          34.1150    28.4070    36.7230 c3         1 MW9      -0.080400
     36 C40         19.8380    33.6570    32.3250 c3         1 MW9      -0.074400
     37 C41         20.0470    32.7760    33.5730 c3         1 MW9      -0.088100
     38 C5          32.8960    28.2940    37.6740 c3         1 MW9      -0.078400
     39 C6          33.2470    27.9190    39.1380 c3         1 MW9      -0.076400
     40 C7          33.1830    26.4000    39.4590 c3         1 MW9      -0.076400
     41 C8          31.8710    25.9350    40.1390 c3         1 MW9      -0.080400
     42 C9          30.5840    26.1500    39.3050 c3         1 MW9      -0.065400
     43 O1          29.2760    24.7410    35.1020 os         1 MW9      -0.461100
     44 O2          32.0390    28.1260    32.8160 os         1 MW9      -0.574400
     45 O3          31.5520    26.3070    31.0310 o          1 MW9      -0.809500
     46 O4          32.6130    28.4130    30.3490 o          1 MW9      -0.809500
     47 O5          33.9410    26.8810    31.8730 os         1 MW9      -0.615400
     48 O6          36.3090    23.4830    32.7790 oh         1 MW9      -0.657000
     49 O7          32.7780    24.4420    33.3520 oh         1 MW9      -0.615000
     50 O8          29.3250    27.4890    33.6110 os         1 MW9      -0.448100
     51 O9          28.2340    25.9310    32.3070 o          1 MW9      -0.467000
     52 P           32.4760    27.4030    31.4390 p5         1 MW9       1.392800
     53 H1          38.7580    25.2560    34.4250 hc         1 MW9       0.033700
     54 H2          37.6910    26.2670    33.4260 hc         1 MW9       0.033700
     55 H3          38.7660    27.0220    34.6270 hc         1 MW9       0.033700
     56 H4          37.4880    25.8830    36.4730 hc         1 MW9       0.030700
     57 H5          36.4280    25.1290    35.2880 hc         1 MW9       0.030700
     58 H6          29.2330    26.3830    40.9790 hc         1 MW9       0.035700
     59 H7          28.4240    26.1070    39.4560 hc         1 MW9       0.035700
     60 H8          28.1740    24.1870    41.0050 hc         1 MW9       0.027700
     61 H9          29.9090    23.9950    41.1270 hc         1 MW9       0.027700
     62 H10         28.9420    22.2830    39.6610 hc         1 MW9       0.035700
     63 H11         30.0410    23.2960    38.7390 hc         1 MW9       0.035700
     64 H12         28.1390    24.5370    37.7560 hc         1 MW9       0.039700
     65 H13         26.9940    23.6700    38.7700 hc         1 MW9       0.039700
     66 H14         27.5390    21.5340    37.6600 hc         1 MW9       0.048700
     67 H15         28.7690    22.2980    36.6650 hc         1 MW9       0.048700
     68 H16         25.8840    23.3110    36.5510 hc         1 MW9       0.042200
     69 H17         26.3050    21.8170    35.7380 hc         1 MW9       0.042200
     70 H18         27.9110    22.9090    34.2980 hc         1 MW9       0.080700
     71 H19         26.3430    23.7730    34.2040 hc         1 MW9       0.080700
     72 H20         31.0790    25.5540    35.7200 h1         1 MW9       0.056200
     73 H21         29.6950    26.6050    36.0200 h1         1 MW9       0.056200
     74 H22         30.5660    25.8190    33.1820 h1         1 MW9       0.106700
     75 H23         35.6720    27.4460    34.5470 hc         1 MW9       0.048700
     76 H24         36.6940    28.1450    35.8020 hc         1 MW9       0.048700
     77 H25         32.5510    26.8170    34.3580 h1         1 MW9       0.035200
     78 H26         31.5680    28.1950    34.8380 h1         1 MW9       0.035200
     79 H27         33.7760    25.0020    30.9240 h1         1 MW9       0.035200
     80 H28         35.3920    25.4730    31.4300 h1         1 MW9       0.035200
     81 H29         34.6050    25.2820    33.8690 h1         1 MW9       0.025700
     82 H30         34.7390    22.7980    33.9570 h1         1 MW9       0.018700
     83 H31         34.4630    22.7090    32.2080 h1         1 MW9       0.018700
     84 H32         27.3070    28.8520    33.4310 hc         1 MW9       0.065700
     85 H33         26.2440    27.6490    32.6150 hc         1 MW9       0.065700
     86 H34         27.3660    28.1640    30.4510 hc         1 MW9       0.055200
     87 H35         28.4470    29.3020    31.2570 hc         1 MW9       0.055200
     88 H36         26.4920    30.7350    31.8900 hc         1 MW9       0.037700
     89 H37         25.3890    29.5890    31.1230 hc         1 MW9       0.037700
     90 H38         26.4740    30.0120    28.9040 hc         1 MW9       0.040700
     91 H39         27.5960    31.1530    29.6600 hc         1 MW9       0.040700
     92 H40         25.6510    32.5900    30.3710 hc         1 MW9       0.040200
     93 H41         24.5340    31.4800    29.5780 hc         1 MW9       0.040200
     94 H42         34.2850    26.2930    36.2430 hc         1 MW9       0.029700
     95 H43         35.3670    26.8290    37.5320 hc         1 MW9       0.029700
     96 H44         26.7370    33.1090    28.1650 hc         1 MW9       0.039700
     97 H45         25.0320    33.5340    28.2510 hc         1 MW9       0.039700
     98 H46         24.5130    31.3050    27.0460 hc         1 MW9       0.050200
     99 H47         26.2360    31.1170    26.7910 hc         1 MW9       0.050200
    100 H48         26.2840    32.7400    25.0840 ha         1 MW9       0.164000
    101 H49         24.3950    34.0870    24.3770 ha         1 MW9       0.163000
    102 H50         22.1660    33.4930    25.2970 hc         1 MW9       0.046700
    103 H51         22.8770    32.8360    26.7510 hc         1 MW9       0.046700
    104 H52         23.7710    35.2730    27.2090 hc         1 MW9       0.039200
    105 H53         22.6830    35.7710    25.9250 hc         1 MW9       0.039200
    106 H54         21.5260    36.1420    27.9950 hc         1 MW9       0.039700
    107 H55         20.7450    34.7550    27.2410 hc         1 MW9       0.039700
    108 H56         22.0420    33.2130    28.7720 hc         1 MW9       0.044200
    109 H57         22.8500    34.6070    29.4840 hc         1 MW9       0.044200
    110 H58         20.6520    35.4570    30.3260 hc         1 MW9       0.038700
    111 H59         19.8250    34.0950    29.5640 hc         1 MW9       0.038700
    112 H60         21.1210    32.4990    31.0170 hc         1 MW9       0.034700
    113 H61         21.9300    33.8630    31.7900 hc         1 MW9       0.034700
    114 H62         34.7730    29.2060    37.0860 hc         1 MW9       0.049700
    115 H63         33.7620    28.7300    35.7360 hc         1 MW9       0.049700
    116 H64         19.7260    34.7030    32.6400 hc         1 MW9       0.038200
    117 H65         18.8990    33.3660    31.8390 hc         1 MW9       0.038200
    118 H66         19.2020    32.8850    34.2630 hc         1 MW9       0.030700
    119 H67         20.1260    31.7180    33.2930 hc         1 MW9       0.030700
    120 H68         20.9630    33.0630    34.1040 hc         1 MW9       0.030700
    121 H69         32.3890    29.2670    37.6810 hc         1 MW9       0.043200
    122 H70         32.1740    27.5790    37.2620 hc         1 MW9       0.043200
    123 H71         34.2530    28.2920    39.3700 hc         1 MW9       0.033700
    124 H72         32.5740    28.4560    39.8170 hc         1 MW9       0.033700
    125 H73         33.3490    25.8090    38.5510 hc         1 MW9       0.039700
    126 H74         34.0130    26.1580    40.1350 hc         1 MW9       0.039700
    127 H75         31.7680    26.4560    41.0990 hc         1 MW9       0.025700
    128 H76         31.9720    24.8680    40.3740 hc         1 MW9       0.025700
    129 H77         30.6500    25.5800    38.3710 hc         1 MW9       0.047700
    130 H78         30.5140    27.2060    39.0200 hc         1 MW9       0.047700
    131 H80         36.7090    22.5860    32.7920 ho         1 MW9       0.428000
    132 H81         32.7480    23.7940    34.0860 ho         1 MW9       0.413000
    133 C24         28.3020    27.0440    32.8110 c          1 MW9       0.599100
@<TRIPOS>BOND
     1     1     3 1   
     2     1    53 1   
     3     1    54 1   
     4     1    55 1   
     5     2    11 2   
     6     3    14 1   
     7     3    56 1   
     8     3    57 1   
     9     4     5 1   
    10     4    42 1   
    11     4    58 1   
    12     4    59 1   
    13     5     6 1   
    14     5    60 1   
    15     5    61 1   
    16     6     7 1   
    17     6    62 1   
    18     6    63 1   
    19     7     8 1   
    20     7    64 1   
    21     7    65 1   
    22     8     9 1   
    23     8    66 1   
    24     8    67 1   
    25     9    10 1   
    26     9    68 1   
    27     9    69 1   
    28    10    11 1   
    29    10    70 1   
    30    10    71 1   
    31    11    43 1   
    32    12    13 1   
    33    12    43 1   
    34    12    72 1   
    35    12    73 1   
    36    13    15 1   
    37    13    50 1   
    38    13    74 1   
    39    14    24 1   
    40    14    75 1   
    41    14    76 1   
    42    15    44 1   
    43    15    77 1   
    44    15    78 1   
    45    16    17 1   
    46    16    47 1   
    47    16    79 1   
    48    16    80 1   
    49    17    18 1   
    50    17    49 1   
    51    17    81 1   
    52    18    48 1   
    53    18    82 1   
    54    18    83 1   
    55    19    20 1   
    56    19    84 1   
    57    19    85 1   
    58    19   133 1   
    59    20    21 1   
    60    20    86 1   
    61    20    87 1   
    62    21    22 1   
    63    21    88 1   
    64    21    89 1   
    65    22    23 1   
    66    22    90 1   
    67    22    91 1   
    68    23    25 1   
    69    23    92 1   
    70    23    93 1   
    71    24    35 1   
    72    24    94 1   
    73    24    95 1   
    74    25    26 1   
    75    25    96 1   
    76    25    97 1   
    77    26    27 1   
    78    26    98 1   
    79    26    99 1   
    80    27    28 2   
    81    27   100 1   
    82    28    29 1   
    83    28   101 1   
    84    29    30 1   
    85    29   102 1   
    86    29   103 1   
    87    30    31 1   
    88    30   104 1   
    89    30   105 1   
    90    31    32 1   
    91    31   106 1   
    92    31   107 1   
    93    32    33 1   
    94    32   108 1   
    95    32   109 1   
    96    33    34 1   
    97    33   110 1   
    98    33   111 1   
    99    34    36 1   
   100    34   112 1   
   101    34   113 1   
   102    35    38 1   
   103    35   114 1   
   104    35   115 1   
   105    36    37 1   
   106    36   116 1   
   107    36   117 1   
   108    37   118 1   
   109    37   119 1   
   110    37   120 1   
   111    38    39 1   
   112    38   121 1   
   113    38   122 1   
   114    39    40 1   
   115    39   123 1   
   116    39   124 1   
   117    40    41 1   
   118    40   125 1   
   119    40   126 1   
   120    41    42 1   
   121    41   127 1   
   122    41   128 1   
   123    42   129 1   
   124    42   130 1   
   125    44    52 1   
   126    45    52 1   
   127    46    52 1   
   128    47    52 1   
   129    48   131 1   
   130    49   132 1   
   131    50   133 1   
   132    51   133 2   
@<TRIPOS>SUBSTRUCTURE
     1 MW9         1 TEMP              0 ****  ****    0 ROOT
