@<TRIPOS>MOLECULE
MW9
  133   132     1     0     0
SMALL
abcg2


@<TRIPOS>ATOM
      1 C           37.6000    23.2510    36.3340 c3         1 MW9      -0.094100
      2 O           28.2070    28.0930    34.8370 o          1 MW9      -0.493000
      3 C1          36.3630    23.7210    37.0800 c3         1 MW9      -0.071400
      4 C10         28.3350    27.1030    39.7580 c3         1 MW9      -0.078400
      5 C11         28.2990    25.5670    39.8670 c3         1 MW9      -0.065400
      6 C12         28.6750    24.7940    38.6160 c3         1 MW9      -0.073400
      7 C13         27.9100    25.1790    37.3440 c3         1 MW9      -0.077400
      8 C14         28.5360    24.5630    36.1020 c3         1 MW9      -0.085400
      9 C15         27.6760    24.6760    34.8390 c3         1 MW9      -0.045400
     10 C16         27.9510    25.8890    33.8940 c3         1 MW9      -0.152400
     11 C17         28.7000    27.0540    34.4830 c          1 MW9       0.615100
     12 C18         30.9480    27.8480    34.2800 c3         1 MW9       0.140600
     13 C19         31.4400    27.7160    32.8300 c3         1 MW9       0.116300
     14 C2          35.7670    24.9880    36.4580 c3         1 MW9      -0.089400
     15 C20         32.8640    27.2180    32.7380 c3         1 MW9       0.240600
     16 C21         35.0400    23.6610    31.9580 c3         1 MW9       0.259600
     17 C22         34.6690    22.9860    33.2620 c3         1 MW9       0.134300
     18 C23         35.4780    21.7310    33.6100 c3         1 MW9       0.119600
     19 C25         29.8950    30.6830    31.3930 c3         1 MW9      -0.146400
     20 C26         28.6790    31.0010    30.5360 c3         1 MW9      -0.071400
     21 C27         28.4390    32.5160    30.4190 c3         1 MW9      -0.080400
     22 C28         27.4020    32.8130    29.3420 c3         1 MW9      -0.077400
     23 C29         26.9590    34.2670    29.2710 c3         1 MW9      -0.074400
     24 C3          34.6100    25.5790    37.2420 c3         1 MW9      -0.077400
     25 C30         26.2630    34.5950    27.9290 c3         1 MW9      -0.080400
     26 C31         25.0250    33.7350    27.7090 c3         1 MW9      -0.047200
     27 C32         24.2140    34.1610    26.5100 c2         1 MW9      -0.214200
     28 C33         22.9490    33.8270    26.2650 c2         1 MW9      -0.230200
     29 C34         22.1510    32.8200    27.0410 c3         1 MW9      -0.049200
     30 C35         20.7220    33.2840    27.3260 c3         1 MW9      -0.072400
     31 C36         19.9650    32.3830    28.3090 c3         1 MW9      -0.079400
     32 C37         20.5860    32.3610    29.7150 c3         1 MW9      -0.077400
     33 C38         19.8260    31.3900    30.6390 c3         1 MW9      -0.080400
     34 C39         19.6210    31.9500    32.0500 c3         1 MW9      -0.080400
     35 C4          34.1550    26.9420    36.6970 c3         1 MW9      -0.080400
     36 C40         19.1640    30.9090    33.0620 c3         1 MW9      -0.074400
     37 C41         18.9110    31.5040    34.4430 c3         1 MW9      -0.088100
     38 C5          32.9310    27.5310    37.4210 c3         1 MW9      -0.078400
     39 C6          33.0300    27.5380    38.9640 c3         1 MW9      -0.076400
     40 C7          32.0270    26.6220    39.6930 c3         1 MW9      -0.076400
     41 C8          30.8320    27.3660    40.3010 c3         1 MW9      -0.080400
     42 C9          29.6730    27.7040    39.3320 c3         1 MW9      -0.065400
     43 O1          30.0220    26.8170    34.5780 os         1 MW9      -0.461100
     44 O2          33.1690    26.9560    31.3790 os         1 MW9      -0.574400
     45 O3          32.1180    24.6280    31.1430 o          1 MW9      -0.809500
     46 O4          33.9040    25.5140    29.4630 o          1 MW9      -0.809500
     47 O5          34.5830    24.9910    31.8750 os         1 MW9      -0.615400
     48 O6          36.7840    21.8210    33.0600 oh         1 MW9      -0.657000
     49 O7          33.2840    22.7140    33.3330 oh         1 MW9      -0.615000
     50 O8          31.3240    28.9730    32.1630 os         1 MW9      -0.448100
     51 O9          29.5680    28.3470    30.9240 o          1 MW9      -0.467000
     52 P           33.3550    25.4150    30.8500 p5         1 MW9       1.392800
     53 H1          38.0570    22.3790    36.8060 hc         1 MW9       0.033700
     54 H2          37.4190    23.0890    35.2730 hc         1 MW9       0.033700
     55 H3          38.3790    24.0190    36.4040 hc         1 MW9       0.033700
     56 H4          36.5610    23.9250    38.1330 hc         1 MW9       0.030700
     57 H5          35.5750    22.9620    37.0080 hc         1 MW9       0.030700
     58 H6          27.9510    27.5440    40.6800 hc         1 MW9       0.035700
     59 H7          27.6140    27.3590    38.9750 hc         1 MW9       0.035700
     60 H8          27.2750    25.3270    40.1730 hc         1 MW9       0.027700
     61 H9          28.9070    25.2630    40.7250 hc         1 MW9       0.027700
     62 H10         28.5290    23.7210    38.7790 hc         1 MW9       0.035700
     63 H11         29.7480    24.8830    38.3970 hc         1 MW9       0.035700
     64 H12         27.8820    26.2690    37.2710 hc         1 MW9       0.039700
     65 H13         26.8780    24.8250    37.4410 hc         1 MW9       0.039700
     66 H14         28.7560    23.5080    36.3080 hc         1 MW9       0.048700
     67 H15         29.5460    24.9570    35.9690 hc         1 MW9       0.048700
     68 H16         26.6530    24.8370    35.1780 hc         1 MW9       0.042200
     69 H17         27.7220    23.7730    34.2340 hc         1 MW9       0.042200
     70 H18         28.5270    25.5570    33.0270 hc         1 MW9       0.080700
     71 H19         27.0020    26.2740    33.5250 hc         1 MW9       0.080700
     72 H20         31.7710    27.7500    34.9910 h1         1 MW9       0.056200
     73 H21         30.5430    28.8460    34.4650 h1         1 MW9       0.056200
     74 H22         30.7980    26.9840    32.3330 h1         1 MW9       0.106700
     75 H23         35.4960    24.8090    35.4110 hc         1 MW9       0.048700
     76 H24         36.5530    25.7540    36.4050 hc         1 MW9       0.048700
     77 H25         32.9510    26.3300    33.3700 h1         1 MW9       0.035200
     78 H26         33.5710    27.9820    33.0740 h1         1 MW9       0.035200
     79 H27         34.6700    23.0580    31.1150 h1         1 MW9       0.035200
     80 H28         36.1240    23.6410    31.8490 h1         1 MW9       0.035200
     81 H29         34.8700    23.7280    34.0560 h1         1 MW9       0.025700
     82 H30         35.5430    21.6300    34.6980 h1         1 MW9       0.018700
     83 H31         34.9700    20.8710    33.1560 h1         1 MW9       0.018700
     84 H32         30.7720    31.2140    31.0060 hc         1 MW9       0.065700
     85 H33         29.7840    31.0370    32.4230 hc         1 MW9       0.065700
     86 H34         27.7920    30.5670    31.0010 hc         1 MW9       0.055200
     87 H35         28.8150    30.5780    29.5380 hc         1 MW9       0.055200
     88 H36         29.3940    33.0070    30.2150 hc         1 MW9       0.037700
     89 H37         28.0750    32.8360    31.4000 hc         1 MW9       0.037700
     90 H38         26.5560    32.1300    29.4560 hc         1 MW9       0.040700
     91 H39         27.8610    32.5380    28.3830 hc         1 MW9       0.040700
     92 H40         27.8070    34.9450    29.3740 hc         1 MW9       0.040200
     93 H41         26.1980    34.4640    30.0320 hc         1 MW9       0.040200
     94 H42         33.7350    24.9120    37.2230 hc         1 MW9       0.029700
     95 H43         34.8600    25.6520    38.3040 hc         1 MW9       0.029700
     96 H44         26.9770    34.3650    27.1330 hc         1 MW9       0.039700
     97 H45         26.0190    35.6590    27.9220 hc         1 MW9       0.039700
     98 H46         24.3910    33.7250    28.6010 hc         1 MW9       0.050200
     99 H47         25.3390    32.6990    27.5470 hc         1 MW9       0.050200
    100 H48         24.6630    34.9190    25.8720 ha         1 MW9       0.164000
    101 H49         22.4540    34.2500    25.3940 ha         1 MW9       0.163000
    102 H50         22.1160    31.9000    26.4440 hc         1 MW9       0.046700
    103 H51         22.6840    32.5590    27.9550 hc         1 MW9       0.046700
    104 H52         20.7970    34.2700    27.7980 hc         1 MW9       0.039200
    105 H53         20.1770    33.3850    26.3830 hc         1 MW9       0.039200
    106 H54         18.9680    32.8150    28.4320 hc         1 MW9       0.039700
    107 H55         19.9160    31.3650    27.9130 hc         1 MW9       0.039700
    108 H56         21.6170    32.0130    29.6440 hc         1 MW9       0.044200
    109 H57         20.5330    33.3750    30.1170 hc         1 MW9       0.044200
    110 H58         18.8620    31.0890    30.2180 hc         1 MW9       0.038700
    111 H59         20.4330    30.4870    30.7640 hc         1 MW9       0.038700
    112 H60         20.5320    32.4540    32.3910 hc         1 MW9       0.034700
    113 H61         18.8650    32.7430    31.9850 hc         1 MW9       0.034700
    114 H62         34.9910    27.6400    36.7610 hc         1 MW9       0.049700
    115 H63         33.8480    26.7460    35.6650 hc         1 MW9       0.049700
    116 H64         18.2440    30.4440    32.6970 hc         1 MW9       0.038200
    117 H65         19.9200    30.1180    33.1310 hc         1 MW9       0.038200
    118 H66         18.5620    30.7480    35.1460 hc         1 MW9       0.030700
    119 H67         19.8130    31.9650    34.8460 hc         1 MW9       0.030700
    120 H68         18.1390    32.2740    34.3900 hc         1 MW9       0.030700
    121 H69         32.8970    28.5810    37.1170 hc         1 MW9       0.043200
    122 H70         32.0240    27.0350    37.0720 hc         1 MW9       0.043200
    123 H71         34.0200    27.1650    39.2320 hc         1 MW9       0.033700
    124 H72         32.9820    28.5580    39.3500 hc         1 MW9       0.033700
    125 H73         31.6080    25.9380    38.9470 hc         1 MW9       0.039700
    126 H74         32.5140    26.0070    40.4510 hc         1 MW9       0.039700
    127 H75         31.1950    28.2840    40.7760 hc         1 MW9       0.025700
    128 H76         30.4610    26.8010    41.1620 hc         1 MW9       0.025700
    129 H77         29.9400    27.3920    38.3200 hc         1 MW9       0.047700
    130 H78         29.5570    28.7890    39.3730 hc         1 MW9       0.047700
    131 H80         37.2520    21.0120    33.2840 ho         1 MW9       0.428000
    132 H81         33.1090    22.2780    34.1740 ho         1 MW9       0.413000
    133 C24         30.2190    29.2160    31.4410 c          1 MW9       0.599100
@<TRIPOS>BOND
     1     1     3 1   
     2     1    53 1   
     3     1    54 1   
     4     1    55 1   
     5     2    11 2   
     6     3    14 1   
     7     3    56 1   
     8     3    57 1   
     9     4     5 1   
    10     4    42 1   
    11     4    58 1   
    12     4    59 1   
    13     5     6 1   
    14     5    60 1   
    15     5    61 1   
    16     6     7 1   
    17     6    62 1   
    18     6    63 1   
    19     7     8 1   
    20     7    64 1   
    21     7    65 1   
    22     8     9 1   
    23     8    66 1   
    24     8    67 1   
    25     9    10 1   
    26     9    68 1   
    27     9    69 1   
    28    10    11 1   
    29    10    70 1   
    30    10    71 1   
    31    11    43 1   
    32    12    13 1   
    33    12    43 1   
    34    12    72 1   
    35    12    73 1   
    36    13    15 1   
    37    13    50 1   
    38    13    74 1   
    39    14    24 1   
    40    14    75 1   
    41    14    76 1   
    42    15    44 1   
    43    15    77 1   
    44    15    78 1   
    45    16    17 1   
    46    16    47 1   
    47    16    79 1   
    48    16    80 1   
    49    17    18 1   
    50    17    49 1   
    51    17    81 1   
    52    18    48 1   
    53    18    82 1   
    54    18    83 1   
    55    19    20 1   
    56    19    84 1   
    57    19    85 1   
    58    19   133 1   
    59    20    21 1   
    60    20    86 1   
    61    20    87 1   
    62    21    22 1   
    63    21    88 1   
    64    21    89 1   
    65    22    23 1   
    66    22    90 1   
    67    22    91 1   
    68    23    25 1   
    69    23    92 1   
    70    23    93 1   
    71    24    35 1   
    72    24    94 1   
    73    24    95 1   
    74    25    26 1   
    75    25    96 1   
    76    25    97 1   
    77    26    27 1   
    78    26    98 1   
    79    26    99 1   
    80    27    28 2   
    81    27   100 1   
    82    28    29 1   
    83    28   101 1   
    84    29    30 1   
    85    29   102 1   
    86    29   103 1   
    87    30    31 1   
    88    30   104 1   
    89    30   105 1   
    90    31    32 1   
    91    31   106 1   
    92    31   107 1   
    93    32    33 1   
    94    32   108 1   
    95    32   109 1   
    96    33    34 1   
    97    33   110 1   
    98    33   111 1   
    99    34    36 1   
   100    34   112 1   
   101    34   113 1   
   102    35    38 1   
   103    35   114 1   
   104    35   115 1   
   105    36    37 1   
   106    36   116 1   
   107    36   117 1   
   108    37   118 1   
   109    37   119 1   
   110    37   120 1   
   111    38    39 1   
   112    38   121 1   
   113    38   122 1   
   114    39    40 1   
   115    39   123 1   
   116    39   124 1   
   117    40    41 1   
   118    40   125 1   
   119    40   126 1   
   120    41    42 1   
   121    41   127 1   
   122    41   128 1   
   123    42   129 1   
   124    42   130 1   
   125    44    52 1   
   126    45    52 1   
   127    46    52 1   
   128    47    52 1   
   129    48   131 1   
   130    49   132 1   
   131    50   133 1   
   132    51   133 2   
@<TRIPOS>SUBSTRUCTURE
     1 MW9         1 TEMP              0 ****  ****    0 ROOT
