@<TRIPOS>MOLECULE
MWA
   37    38     1     0     0
SMALL
No Charge or Current Charge


@<TRIPOS>ATOM
      1 C11          2.4070     0.1890     0.0040 ca         1 MWA       0.011000
      2 C13          4.5530     0.3960     1.1520 ca         1 MWA       0.212000
      3 C15          5.1650    -0.4250     0.1880 ca         1 MWA       0.039000
      4 C17          4.3980    -0.9400    -0.8690 ca         1 MWA      -0.051000
      5 C18          3.0260    -0.6360    -0.9630 ca         1 MWA      -0.144000
      6 C20         -3.2490     2.4240    -1.1240 c6         1 MWA      -0.075400
      7 C21         -4.2450     1.2840    -0.8040 c6         1 MWA       0.195800
      8 C02         -5.3610    -1.7620    -0.4710 c3         1 MWA      -0.381100
      9 C06         -2.4160    -0.2550    -0.1860 c6         1 MWA       0.203800
     10 C07         -1.3730     0.8270    -0.5420 c6         1 MWA      -0.143700
     11 C08         -0.0030     0.2200    -0.8960 c          1 MWA       0.609100
     12 C12          3.1850     0.7000     1.0600 ca         1 MWA      -0.212000
     13 C19         -1.8830     1.8610    -1.5770 c6         1 MWA      -0.069400
     14 F14          5.2770     0.9010     2.1780 f          1 MWA      -0.159000
     15 N05         -3.7030     0.3630     0.2320 n3         1 MWA      -0.731500
     16 N10          1.0290     0.5400    -0.0220 ns         1 MWA      -0.141000
     17 O03         -5.9920     0.0720     1.3510 o          1 MWA      -0.529000
     18 O04         -4.1310    -1.5590     1.8740 o          1 MWA      -0.529000
     19 O09          0.1280    -0.4910    -1.8860 o          1 MWA      -0.576100
     20 S01         -4.8530    -0.7350     0.8990 s6         1 MWA       1.200100
     21 Cl1          6.8820    -0.8170     0.2880 cl         1 MWA      -0.168000
     22 H1           4.8650    -1.5750    -1.6180 ha         1 MWA       0.134000
     23 H2           2.4680    -1.0530    -1.7950 ha         1 MWA       0.156000
     24 H3          -3.6650     3.0750    -1.9030 hc         1 MWA       0.057700
     25 H4          -3.1150     3.0490    -0.2310 hc         1 MWA       0.057700
     26 H5          -5.1850     1.7430    -0.4630 h1         1 MWA       0.057700
     27 H6          -4.4720     0.7350    -1.7300 h1         1 MWA       0.057700
     28 H7          -4.4730    -2.2690    -0.8600 h1         1 MWA       0.101700
     29 H8          -6.0860    -2.4840    -0.0830 h1         1 MWA       0.101700
     30 H9          -5.8180    -1.1160    -1.2270 h1         1 MWA       0.101700
     31 H10         -2.5670    -0.9110    -1.0570 h1         1 MWA       0.067700
     32 H11         -2.0040    -0.8810     0.6200 h1         1 MWA       0.067700
     33 H12         -1.2130     1.3920     0.3870 hc         1 MWA       0.073700
     34 H13          2.7340     1.3370     1.8160 ha         1 MWA       0.133000
     35 H14         -1.9880     1.3850    -2.5630 hc         1 MWA       0.056700
     36 H15         -1.1580     2.6790    -1.6960 hc         1 MWA       0.056700
     37 H16          0.7500     1.1400     0.7430 hn         1 MWA       0.158000
@<TRIPOS>BOND
     1     1     5 ar  
     2     1    12 ar  
     3     1    16 1   
     4     2     3 ar  
     5     2    12 ar  
     6     2    14 1   
     7     3     4 ar  
     8     3    21 1   
     9     4     5 ar  
    10     4    22 1   
    11     5    23 1   
    12     6     7 1   
    13     6    13 1   
    14     6    24 1   
    15     6    25 1   
    16     7    15 1   
    17     7    26 1   
    18     7    27 1   
    19     8    20 1   
    20     8    28 1   
    21     8    29 1   
    22     8    30 1   
    23     9    10 1   
    24     9    15 1   
    25     9    31 1   
    26     9    32 1   
    27    10    11 1   
    28    10    13 1   
    29    10    33 1   
    30    11    16 1   
    31    11    19 2   
    32    12    34 1   
    33    13    35 1   
    34    13    36 1   
    35    15    20 1   
    36    16    37 1   
    37    17    20 2   
    38    18    20 2   
@<TRIPOS>SUBSTRUCTURE
     1 MWA         1 TEMP              0 ****  ****    0 ROOT
