@<TRIPOS>MOLECULE
MWA
   37    38     1     0     0
SMALL
bcc


@<TRIPOS>ATOM
      1 C11          2.3470     0.1990     0.0330 ca         1 MWA       0.103600
      2 C13          4.5130     0.4040     1.0450 ca         1 MWA       0.176900
      3 C15          5.0850    -0.3670     0.0470 ca         1 MWA      -0.052600
      4 C17          4.2710    -0.8550    -0.9600 ca         1 MWA      -0.069000
      5 C18          2.9120    -0.5830    -0.9770 ca         1 MWA      -0.162000
      6 C20         -3.1440     2.3920    -1.1040 c6         1 MWA      -0.075400
      7 C21         -4.1650     1.2740    -0.9740 c6         1 MWA       0.195800
      8 C02         -5.3480    -1.8350    -0.3940 c3         1 MWA      -0.270300
      9 C06         -2.4270    -0.2880    -0.2470 c6         1 MWA       0.203800
     10 C07         -1.3600     0.8020    -0.3450 c6         1 MWA      -0.143700
     11 C08         -0.0270     0.1810    -0.7080 c          1 MWA       0.676100
     12 C12          3.1670     0.6900     1.0510 ca         1 MWA      -0.230000
     13 C19         -1.7570     1.8390    -1.4010 c6         1 MWA      -0.069400
     14 F14          5.2840     0.8790     2.0230 f          1 MWA      -0.123900
     15 N05         -3.7120     0.3370     0.0570 n3         1 MWA      -0.731500
     16 N10          0.9980     0.5420     0.1080 ns         1 MWA      -0.467100
     17 O03         -5.9980     0.2380     1.0790 o          1 MWA      -0.599800
     18 O04         -4.1920    -1.2900     1.9000 o          1 MWA      -0.599800
     19 O09          0.0940    -0.5580    -1.6680 o          1 MWA      -0.576100
     20 S01         -4.8490    -0.6080     0.7950 s6         1 MWA       1.230900
     21 CL1          6.7760    -0.6960     0.0790 cl         1 MWA      -0.076400
     22 H1           4.7000    -1.4580    -1.7480 ha         1 MWA       0.152000
     23 H2           2.3130    -0.9830    -1.7770 ha         1 MWA       0.174000
     24 H3          -3.4580     3.0650    -1.9030 hc         1 MWA       0.057700
     25 H4          -3.1290     2.9730    -0.1780 hc         1 MWA       0.057700
     26 H5          -5.1330     1.6850    -0.6940 h1         1 MWA       0.057700
     27 H6          -4.2830     0.7610    -1.9380 h1         1 MWA       0.057700
     28 H7          -4.4870    -2.4330    -0.6870 h1         1 MWA       0.101700
     29 H8          -6.0940    -2.4730     0.0750 h1         1 MWA       0.101700
     30 H9          -5.7770    -1.3440    -1.2650 h1         1 MWA       0.101700
     31 H10         -2.4750    -0.8450    -1.1900 h1         1 MWA       0.067700
     32 H11         -2.1680    -0.9900     0.5450 h1         1 MWA       0.067700
     33 H12         -1.3000     1.2980     0.6290 hc         1 MWA       0.073700
     34 H13          2.7590     1.2940     1.8530 ha         1 MWA       0.151000
     35 H14         -1.7550     1.3680    -2.3890 hc         1 MWA       0.056700
     36 H15         -1.0240     2.6470    -1.4290 hc         1 MWA       0.056700
     37 H16          0.7550     1.1410     0.8820 hn         1 MWA       0.324500
@<TRIPOS>BOND
     1     1     5 ar  
     2     1    12 ar  
     3     1    16 1   
     4     2     3 ar  
     5     2    12 ar  
     6     2    14 1   
     7     3     4 ar  
     8     3    21 1   
     9     4     5 ar  
    10     4    22 1   
    11     5    23 1   
    12     6     7 1   
    13     6    13 1   
    14     6    24 1   
    15     6    25 1   
    16     7    15 1   
    17     7    26 1   
    18     7    27 1   
    19     8    20 1   
    20     8    28 1   
    21     8    29 1   
    22     8    30 1   
    23     9    10 1   
    24     9    15 1   
    25     9    31 1   
    26     9    32 1   
    27    10    11 1   
    28    10    13 1   
    29    10    33 1   
    30    11    16 1   
    31    11    19 2   
    32    12    34 1   
    33    13    35 1   
    34    13    36 1   
    35    15    20 1   
    36    16    37 1   
    37    17    20 2   
    38    18    20 2   
@<TRIPOS>SUBSTRUCTURE
     1 MWA         1 TEMP              0 ****  ****    0 ROOT
