@<TRIPOS>MOLECULE
MWC
   20    20     1     0     0
SMALL
abcg2


@<TRIPOS>ATOM
      1 C1           6.1190    29.0910    34.6370 c3         1 MWC      -0.125400
      2 C2           7.0310    26.5820    32.2530 cc         1 MWC       0.079300
      3 C4           6.8670    28.1340    33.7910 cc         1 MWC       0.153300
      4 C5           8.1860    27.8360    33.6860 cd         1 MWC      -0.198000
      5 C6           8.2910    26.8220    32.6860 cd         1 MWC      -0.168000
      6 N9           6.4950    23.7620    32.5750 n3         1 MWC      -0.003100
      7 O10          6.2490    24.1280    33.8860 oh         1 MWC      -0.455300
      8 O11          5.8870    22.5360    32.4470 oh         1 MWC      -0.455300
      9 O3           6.1620    27.3790    32.9200 os         1 MWC      -0.223000
     10 O8           5.6910    24.6000    31.8010 os         1 MWC      -0.261300
     11 H1           5.3880    28.5870    35.2720 hc         1 MWC       0.056700
     12 H2           6.8120    29.6260    35.2830 hc         1 MWC       0.056700
     13 H3           5.5810    29.8290    34.0380 hc         1 MWC       0.056700
     14 H4           8.9860    28.2830    34.2550 ha         1 MWC       0.141000
     15 H5           9.1870    26.3340    32.3360 ha         1 MWC       0.139000
     16 H6           7.3240    25.2260    30.6750 h1         1 MWC       0.071200
     17 H7           5.8210    26.1460    30.5470 h1         1 MWC       0.071200
     18 H8           7.1150    24.4010    34.2150 ho         1 MWC       0.465000
     19 H9           6.5440    21.9950    31.9920 ho         1 MWC       0.465000
     20 C7           6.4870    25.6370    31.2480 c3         1 MWC       0.134300
@<TRIPOS>BOND
     1     1     3 1   
     2     1    11 1   
     3     1    12 1   
     4     1    13 1   
     5     2     5 2   
     6     2     9 1   
     7     2    20 1   
     8     3     4 2   
     9     3     9 1   
    10     4     5 1   
    11     4    14 1   
    12     5    15 1   
    13     6     7 1   
    14     6     8 1   
    15     6    10 1   
    16     7    18 1   
    17     8    19 1   
    18    10    20 1   
    19    16    20 1   
    20    17    20 1   
@<TRIPOS>SUBSTRUCTURE
     1 MWC         1 TEMP              0 ****  ****    0 ROOT
