@<TRIPOS>MOLECULE
MWC
   20    20     1     0     0
SMALL
No Charge or Current Charge


@<TRIPOS>ATOM
      1 C1           6.2550    29.3570    34.5660 c3         1 MWC      -0.125400
      2 C2           6.8700    26.5860    32.3000 cc         1 MWC       0.079300
      3 C4           6.8590    28.2410    33.7660 cc         1 MWC       0.153300
      4 C5           8.1340    27.7480    33.7310 cd         1 MWC      -0.198000
      5 C6           8.1420    26.6930    32.7950 cd         1 MWC      -0.168000
      6 N9           6.4840    23.7050    32.6190 n3         1 MWC      -0.003100
      7 O10          6.1060    23.6420    33.9980 oh         1 MWC      -0.455300
      8 O11          6.3570    22.3890    32.0710 oh         1 MWC      -0.455300
      9 O3           6.0650    27.5400    32.8870 os         1 MWC      -0.223000
     10 O8           5.5660    24.5840    31.9280 os         1 MWC      -0.261300
     11 H1           5.4310    28.9870    35.1870 hc         1 MWC       0.056700
     12 H2           7.0010    29.8130    35.2270 hc         1 MWC       0.056700
     13 H3           5.8620    30.1390    33.9060 hc         1 MWC       0.056700
     14 H4           8.9750    28.1060    34.3160 ha         1 MWC       0.141000
     15 H5           8.9920    26.0780    32.5150 ha         1 MWC       0.139000
     16 H6           7.0810    25.2520    30.6340 h1         1 MWC       0.071200
     17 H7           5.5990    26.2210    30.6300 h1         1 MWC       0.071200
     18 H8           6.8980    24.0020    34.4540 ho         1 MWC       0.465000
     19 H9           7.2640    22.2030    31.7420 ho         1 MWC       0.465000
     20 C7           6.2820    25.6500    31.2720 c3         1 MWC       0.134300
@<TRIPOS>BOND
     1     1     3 1   
     2     1    11 1   
     3     1    12 1   
     4     1    13 1   
     5     2     5 2   
     6     2     9 1   
     7     2    20 1   
     8     3     4 2   
     9     3     9 1   
    10     4     5 1   
    11     4    14 1   
    12     5    15 1   
    13     6     7 1   
    14     6     8 1   
    15     6    10 1   
    16     7    18 1   
    17     8    19 1   
    18    10    20 1   
    19    16    20 1   
    20    17    20 1   
@<TRIPOS>SUBSTRUCTURE
     1 MWC         1 TEMP              0 ****  ****    0 ROOT
