@<TRIPOS>MOLECULE
MWD
   44    45     1     0     0
SMALL
No Charge or Current Charge


@<TRIPOS>ATOM
      1 O10         -0.8460    -1.4020    -1.5250 o          1 MWD      -0.577100
      2 C18         -5.0870    -0.3350    -0.9360 ca         1 MWD      -0.052000
      3 C19         -3.7040    -0.5830    -0.8600 ca         1 MWD      -0.147000
      4 C20          1.3270    -2.5360     0.3790 c6         1 MWD      -0.065400
      5 C21          2.6820    -2.4780     1.1020 c6         1 MWD      -0.108400
      6 C22          3.7030    -1.5980     0.3440 c6         1 MWD       0.090000
      7 C01          9.0450     1.8910    -0.4850 c3         1 MWD      -0.088100
      8 C02          7.8910     0.9250    -0.1540 c3         1 MWD      -0.092400
      9 C03          6.5090     1.4910    -0.5340 c3         1 MWD       0.102000
     10 C05          4.1030     0.7830    -0.4480 c          1 MWD       0.634100
     11 C07          1.7850    -0.1510    -0.5170 c6         1 MWD       0.099000
     12 C08          0.8000    -1.0980     0.2070 c6         1 MWD      -0.177700
     13 C09         -0.6240    -1.0290    -0.3790 c          1 MWD       0.614100
     14 C12         -2.9890    -0.3020     0.3270 ca         1 MWD       0.015000
     15 C13         -3.6850     0.2300     1.4290 ca         1 MWD      -0.212000
     16 C14         -5.0650     0.4770     1.3520 ca         1 MWD       0.211000
     17 C16         -5.7720     0.1960     0.1690 ca         1 MWD       0.037000
     18 F15         -5.7070     0.9890     2.4270 f          1 MWD      -0.161000
     19 N04          5.4360     0.5520    -0.2080 ns         1 MWD      -0.503900
     20 N06          3.2090    -0.2410    -0.0670 n          1 MWD      -0.397800
     21 N11         -1.5930    -0.5240     0.4800 ns         1 MWD      -0.142000
     22 O23          3.7210     1.8230    -0.9630 o          1 MWD      -0.642100
     23 Cl1         -7.5050     0.5000     0.0550 cl         1 MWD      -0.170000
     24 H1          -5.6290    -0.5540    -1.8540 ha         1 MWD       0.133000
     25 H2          -3.2110    -0.9930    -1.7360 ha         1 MWD       0.156000
     26 H3           1.4390    -3.0230    -0.6000 hc         1 MWD       0.057200
     27 H4           0.6160    -3.1410     0.9600 hc         1 MWD       0.057200
     28 H5           2.5420    -2.0780     2.1160 hc         1 MWD       0.053200
     29 H6           3.0870    -3.4920     1.2240 hc         1 MWD       0.053200
     30 H7           4.5870    -1.4970     0.9890 h1         1 MWD       0.054200
     31 H8           4.0230    -2.1320    -0.5630 h1         1 MWD       0.054200
     32 H9          10.0070     1.4490    -0.1990 hc         1 MWD       0.037367
     33 H10          9.0740     2.1080    -1.5590 hc         1 MWD       0.037367
     34 H11          8.9280     2.8370     0.0580 hc         1 MWD       0.037367
     35 H12          8.0530    -0.0210    -0.6850 hc         1 MWD       0.041700
     36 H13          7.9090     0.7010     0.9200 hc         1 MWD       0.041700
     37 H14          6.3340     2.4300     0.0080 h1         1 MWD       0.052200
     38 H15          6.4800     1.7020    -1.6110 h1         1 MWD       0.052200
     39 H16          1.7590    -0.3690    -1.5950 h1         1 MWD       0.076200
     40 H17          1.4280     0.8830    -0.3950 h1         1 MWD       0.076200
     41 H18          0.7130    -0.6960     1.2260 hc         1 MWD       0.069700
     42 H19         -3.1580     0.4550     2.3530 ha         1 MWD       0.134000
     43 H20          5.6790    -0.3290     0.2230 hn         1 MWD       0.304500
     44 H21         -1.2390    -0.2660     1.3920 hn         1 MWD       0.160000
@<TRIPOS>BOND
     1     1    13 2   
     2     2     3 ar  
     3     2    17 ar  
     4     2    24 1   
     5     3    14 ar  
     6     3    25 1   
     7     4     5 1   
     8     4    12 1   
     9     4    26 1   
    10     4    27 1   
    11     5     6 1   
    12     5    28 1   
    13     5    29 1   
    14     6    20 1   
    15     6    30 1   
    16     6    31 1   
    17     7     8 1   
    18     7    32 1   
    19     7    33 1   
    20     7    34 1   
    21     8     9 1   
    22     8    35 1   
    23     8    36 1   
    24     9    19 1   
    25     9    37 1   
    26     9    38 1   
    27    10    19 1   
    28    10    20 1   
    29    10    22 2   
    30    11    12 1   
    31    11    20 1   
    32    11    39 1   
    33    11    40 1   
    34    12    13 1   
    35    12    41 1   
    36    13    21 1   
    37    14    15 ar  
    38    14    21 1   
    39    15    16 ar  
    40    15    42 1   
    41    16    17 ar  
    42    16    18 1   
    43    17    23 1   
    44    19    43 1   
    45    21    44 1   
@<TRIPOS>SUBSTRUCTURE
     1 MWD         1 TEMP              0 ****  ****    0 ROOT
