@<TRIPOS>MOLECULE
MWD
   44    45     1     0     0
SMALL
bcc


@<TRIPOS>ATOM
      1 O10         -0.9830    -2.2230    -0.8170 o          1 MWD      -0.577100
      2 C18         -4.7720    -0.3720    -0.3290 ca         1 MWD      -0.070000
      3 C19         -3.4440    -0.7700    -0.3300 ca         1 MWD      -0.165000
      4 C20          1.5740    -2.6630     0.5520 c6         1 MWD      -0.065400
      5 C21          3.0980    -2.6590     0.6150 c6         1 MWD      -0.108400
      6 C22          3.6960    -2.2010    -0.7090 c6         1 MWD       0.090000
      7 C01          8.0430     2.4050     0.5740 c3         1 MWD      -0.088100
      8 C02          7.2440     1.1460     0.2720 c3         1 MWD      -0.092400
      9 C03          5.8160     1.4710    -0.1360 c3         1 MWD       0.102000
     10 C05          3.7490     0.2870    -0.6750 c          1 MWD       0.768100
     11 C07          1.7320    -0.9130    -1.2410 c6         1 MWD       0.099000
     12 C08          1.0410    -1.3100     0.0750 c6         1 MWD      -0.177700
     13 C09         -0.4560    -1.3520    -0.1500 c          1 MWD       0.681100
     14 C12         -2.4930    -0.0170     0.3610 ca         1 MWD       0.107600
     15 C13         -2.9020     1.1290     1.0480 ca         1 MWD      -0.230000
     16 C14         -4.2260     1.5000     1.0330 ca         1 MWD       0.175900
     17 C16         -5.1790     0.7640     0.3490 ca         1 MWD      -0.054600
     18 F15         -4.6020     2.5970     1.6930 f          1 MWD      -0.125900
     19 N04          5.0840     0.2530    -0.4230 ns         1 MWD      -0.570900
     20 N06          3.1720    -0.8930    -1.0830 n          1 MWD      -0.464800
     21 N11         -1.1350    -0.3210     0.4220 ns         1 MWD      -0.468100
     22 O23          3.1000     1.3220    -0.5560 o          1 MWD      -0.642100
     23 CL1         -6.8250     1.2700     0.3560 cl         1 MWD      -0.078400
     24 H1          -5.5010    -0.9600    -0.8700 ha         1 MWD       0.151000
     25 H2          -3.1690    -1.6620    -0.8660 ha         1 MWD       0.174000
     26 H3           1.2440    -3.4430    -0.1390 hc         1 MWD       0.057200
     27 H4           1.1570    -2.9060     1.5310 hc         1 MWD       0.057200
     28 H5           3.4460    -1.9990     1.4160 hc         1 MWD       0.053200
     29 H6           3.4610    -3.6620     0.8510 hc         1 MWD       0.053200
     30 H7           4.7820    -2.2030    -0.6630 h1         1 MWD       0.054200
     31 H8           3.4290    -2.9050    -1.5020 h1         1 MWD       0.054200
     32 H9           9.0700     2.1630     0.8460 hc         1 MWD       0.037367
     33 H10          8.0780     3.0680    -0.2920 hc         1 MWD       0.037367
     34 H11          7.6040     2.9640     1.4020 hc         1 MWD       0.037367
     35 H12          7.7350     0.5850    -0.5290 hc         1 MWD       0.041700
     36 H13          7.2300     0.4920     1.1480 hc         1 MWD       0.041700
     37 H14          5.3180     2.0050     0.6750 h1         1 MWD       0.052200
     38 H15          5.8240     2.1440    -1.0010 h1         1 MWD       0.052200
     39 H16          1.4900    -1.6500    -2.0120 h1         1 MWD       0.076200
     40 H17          1.3840     0.0560    -1.5910 h1         1 MWD       0.076200
     41 H18          1.2820    -0.5470     0.8240 hc         1 MWD       0.069700
     42 H19         -2.1900     1.7340     1.5970 ha         1 MWD       0.152000
     43 H20          5.6290    -0.4950    -0.8170 hn         1 MWD       0.304500
     44 H21         -0.5790     0.3280     0.9580 hn         1 MWD       0.326500
@<TRIPOS>BOND
     1     1    13 2   
     2     2     3 ar  
     3     2    17 ar  
     4     2    24 1   
     5     3    14 ar  
     6     3    25 1   
     7     4     5 1   
     8     4    12 1   
     9     4    26 1   
    10     4    27 1   
    11     5     6 1   
    12     5    28 1   
    13     5    29 1   
    14     6    20 1   
    15     6    30 1   
    16     6    31 1   
    17     7     8 1   
    18     7    32 1   
    19     7    33 1   
    20     7    34 1   
    21     8     9 1   
    22     8    35 1   
    23     8    36 1   
    24     9    19 1   
    25     9    37 1   
    26     9    38 1   
    27    10    19 1   
    28    10    20 1   
    29    10    22 2   
    30    11    12 1   
    31    11    20 1   
    32    11    39 1   
    33    11    40 1   
    34    12    13 1   
    35    12    41 1   
    36    13    21 1   
    37    14    15 ar  
    38    14    21 1   
    39    15    16 ar  
    40    15    42 1   
    41    16    17 ar  
    42    16    18 1   
    43    17    23 1   
    44    19    43 1   
    45    21    44 1   
@<TRIPOS>SUBSTRUCTURE
     1 MWD         1 TEMP              0 ****  ****    0 ROOT
