@<TRIPOS>MOLECULE
MWF
   48    51     1     0     0
SMALL
No Charge or Current Charge


@<TRIPOS>ATOM
      1 N1          -0.3140    -5.8700   -13.5800 nt         1 MWF      -0.597000
      2 N3           2.4740   -10.1040   -19.3640 nc         1 MWF      -0.740000
      3 C4           0.2730    -9.2800   -14.8240 ca         1 MWF       0.349000
      4 C5           1.1290   -10.3660   -14.6530 ca         1 MWF      -0.225000
      5 C6           1.9140   -10.8570   -15.7070 ca         1 MWF       0.182100
      6 C7           1.8260   -10.2670   -17.0010 ca         1 MWF      -0.232500
      7 C8           0.9610    -9.1530   -17.1510 ca         1 MWF      -0.011000
      8 C10          2.5480   -10.7500   -18.2070 cd         1 MWF       0.510000
      9 C13          3.6960   -12.8640   -17.3450 c3         1 MWF       0.037600
     10 C15          2.6790    -9.1990   -22.1010 c5         1 MWF       0.032700
     11 C17          4.0780   -11.0770   -22.5630 c          1 MWF       0.711100
     12 C1          -2.8410    -8.6110   -14.4750 c3         1 MWF      -0.105100
     13 C2          -1.6750    -7.9450   -13.7060 c3         1 MWF       0.144500
     14 C3          -1.3910    -6.4590   -14.1510 c          1 MWF       0.596100
     15 O1          -2.0630    -5.8350   -14.9600 o          1 MWF      -0.604100
     16 N2          -0.4680    -8.8380   -13.7240 nu         1 MWF      -0.969200
     17 C9           0.2000    -8.6660   -16.0780 ca         1 MWF      -0.202000
     18 C11          3.2000   -10.8180   -20.2630 cc         1 MWF       0.389900
     19 C12          3.7450   -11.9290   -19.6870 cd         1 MWF      -0.234000
     20 N4           3.3280   -11.8910   -18.3680 na         1 MWF      -0.150500
     21 C14          3.9810   -12.2000   -15.9990 c3         1 MWF       0.149600
     22 O2           2.7290   -11.9140   -15.3650 os         1 MWF      -0.351100
     23 N5           3.3390   -10.4160   -21.5860 n          1 MWF      -0.404300
     24 C16          3.4600    -9.0460   -23.4390 c5         1 MWF       0.147600
     25 O3           4.0230   -10.3510   -23.7150 os         1 MWF      -0.400100
     26 C18          1.1450    -9.3570   -22.2700 c3         1 MWF       0.158300
     27 F1           0.5990    -8.2400   -22.8060 f          1 MWF      -0.120500
     28 F2           0.8320   -10.3860   -23.0930 f          1 MWF      -0.120500
     29 H1          -0.0680    -4.9260   -13.8330 hn         1 MWF       0.321500
     30 H2           0.2670    -6.4110   -12.9560 hn         1 MWF       0.321500
     31 H3           1.2030   -10.8400   -13.6790 ha         1 MWF       0.125000
     32 H4           0.8550    -8.6540   -18.1120 ha         1 MWF       0.137000
     33 H5           2.8920   -13.6020   -17.2370 h1         1 MWF       0.074200
     34 H6           4.5990   -13.3920   -17.6750 h1         1 MWF       0.074200
     35 H7           2.8660    -8.3370   -21.4450 h1         1 MWF       0.106700
     36 H8          -3.0380    -9.6160   -14.0840 hc         1 MWF       0.053033
     37 H9          -3.7590    -8.0210   -14.3640 hc         1 MWF       0.053033
     38 H10         -2.6180    -8.6950   -15.5450 hc         1 MWF       0.053033
     39 H11         -2.0020    -7.8540   -12.6610 h1         1 MWF       0.068700
     40 H12         -0.2770    -9.3500   -12.8600 hn         1 MWF       0.479000
     41 H13         -0.4490    -7.8150   -16.2430 ha         1 MWF       0.131000
     42 H14          4.3740   -12.7130   -20.0890 h4         1 MWF       0.185000
     43 H15          4.5490   -12.9070   -15.3810 h1         1 MWF       0.070200
     44 H16          4.5910   -11.2950   -16.1240 h1         1 MWF       0.070200
     45 H17          4.2860    -8.3320   -23.3230 h1         1 MWF       0.079700
     46 H18          2.8340    -8.7160   -24.2800 h1         1 MWF       0.079700
     47 H19          0.6850    -9.5360   -21.2920 h2         1 MWF       0.094700
     48 O4           4.6740   -12.1370   -22.4490 o          1 MWF      -0.520000
@<TRIPOS>BOND
     1     1    14 1   
     2     1    29 1   
     3     1    30 1   
     4     2     8 2   
     5     2    18 1   
     6     3     4 ar  
     7     3    16 1   
     8     3    17 ar  
     9     4     5 ar  
    10     4    31 1   
    11     5     6 ar  
    12     5    22 1   
    13     6     7 ar  
    14     6     8 1   
    15     7    17 ar  
    16     7    32 1   
    17     8    20 1   
    18     9    20 1   
    19     9    21 1   
    20     9    33 1   
    21     9    34 1   
    22    10    23 1   
    23    10    24 1   
    24    10    26 1   
    25    10    35 1   
    26    11    23 1   
    27    11    25 1   
    28    11    48 2   
    29    12    13 1   
    30    12    36 1   
    31    12    37 1   
    32    12    38 1   
    33    13    14 1   
    34    13    16 1   
    35    13    39 1   
    36    14    15 2   
    37    16    40 1   
    38    17    41 1   
    39    18    19 2   
    40    18    23 1   
    41    19    20 1   
    42    19    42 1   
    43    21    22 1   
    44    21    43 1   
    45    21    44 1   
    46    24    25 1   
    47    24    45 1   
    48    24    46 1   
    49    26    27 1   
    50    26    28 1   
    51    26    47 1   
@<TRIPOS>SUBSTRUCTURE
     1 MWF         1 TEMP              0 ****  ****    0 ROOT
