@<TRIPOS>MOLECULE
MWF
   48    51     1     0     0
SMALL
abcg2


@<TRIPOS>ATOM
      1 N1           0.0250    -6.1950   -13.7240 nt         1 MWF      -0.597000
      2 N3           2.4620   -10.0910   -19.3130 nc         1 MWF      -0.740000
      3 C4           0.2140    -9.3160   -14.8430 ca         1 MWF       0.349000
      4 C5           1.0220   -10.4430   -14.6860 ca         1 MWF      -0.225000
      5 C6           1.8260   -10.9230   -15.7100 ca         1 MWF       0.182100
      6 C7           1.8560   -10.2900   -16.9630 ca         1 MWF      -0.232500
      7 C8           1.0550    -9.1470   -17.0910 ca         1 MWF      -0.011000
      8 C10          2.5790   -10.7270   -18.1580 cd         1 MWF       0.510000
      9 C13          3.8420   -12.7480   -17.3050 c3         1 MWF       0.037600
     10 C15          2.5210    -9.1960   -22.0030 c5         1 MWF       0.032700
     11 C17          4.0400   -10.8850   -22.4910 c          1 MWF       0.711100
     12 C1          -2.7720    -8.4210   -14.7850 c3         1 MWF      -0.105100
     13 C2          -1.6390    -7.9510   -13.8790 c3         1 MWF       0.144500
     14 C3          -1.1880    -6.5180   -14.1890 c          1 MWF       0.596100
     15 O1          -1.9230    -5.7310   -14.7660 o          1 MWF      -0.604100
     16 N2          -0.5260    -8.8700   -13.7770 nu         1 MWF      -0.969200
     17 C9           0.2570    -8.6580   -16.0820 ca         1 MWF      -0.202000
     18 C11          3.2360   -10.7560   -20.1950 cc         1 MWF       0.389900
     19 C12          3.8490   -11.8200   -19.5970 cd         1 MWF      -0.234000
     20 N4           3.4170   -11.7800   -18.2930 na         1 MWF      -0.150500
     21 C14          3.8340   -12.1830   -15.9080 c3         1 MWF       0.149600
     22 O2           2.5250   -12.0380   -15.3990 os         1 MWF      -0.351100
     23 N5           3.3150   -10.2930   -21.5040 n          1 MWF      -0.404300
     24 C16          3.1990    -8.9680   -23.3600 c5         1 MWF       0.147600
     25 O3           3.9190   -10.1730   -23.6160 os         1 MWF      -0.400100
     26 C18          1.0540    -9.5830   -22.1080 c3         1 MWF       0.158300
     27 F1           0.3840    -8.5790   -22.7360 f          1 MWF      -0.120500
     28 F2           0.9270   -10.6980   -22.8790 f          1 MWF      -0.120500
     29 H1           0.3940    -5.2690   -13.8620 hn         1 MWF       0.321500
     30 H2           0.6160    -6.8840   -13.2900 hn         1 MWF       0.321500
     31 H3           1.0360   -10.9680   -13.7370 ha         1 MWF       0.125000
     32 H4           1.0550    -8.6270   -18.0390 ha         1 MWF       0.137000
     33 H5           3.2130   -13.6390   -17.3530 h1         1 MWF       0.074200
     34 H6           4.8600   -13.0500   -17.5540 h1         1 MWF       0.074200
     35 H7           2.6000    -8.3170   -21.3620 h1         1 MWF       0.106700
     36 H8          -3.0970    -9.4130   -14.4720 hc         1 MWF       0.053033
     37 H9          -3.6280    -7.7530   -14.7100 hc         1 MWF       0.053033
     38 H10         -2.4810    -8.4750   -15.8330 hc         1 MWF       0.053033
     39 H11         -2.0430    -7.8920   -12.8630 h1         1 MWF       0.068700
     40 H12         -0.5840    -9.5110   -13.0030 hn         1 MWF       0.479000
     41 H13         -0.3330    -7.7740   -16.2790 ha         1 MWF       0.131000
     42 H14          4.5300   -12.5750   -19.9450 h4         1 MWF       0.185000
     43 H15          4.3370   -12.8910   -15.2500 h1         1 MWF       0.070200
     44 H16          4.3860   -11.2380   -15.8660 h1         1 MWF       0.070200
     45 H17          3.9020    -8.1370   -23.3050 h1         1 MWF       0.079700
     46 H18          2.5080    -8.7880   -24.1800 h1         1 MWF       0.079700
     47 H19          0.5850    -9.7700   -21.1430 h2         1 MWF       0.094700
     48 O4           4.7040   -11.8850   -22.4130 o          1 MWF      -0.520000
@<TRIPOS>BOND
     1     1    14 1   
     2     1    29 1   
     3     1    30 1   
     4     2     8 2   
     5     2    18 1   
     6     3     4 ar  
     7     3    16 1   
     8     3    17 ar  
     9     4     5 ar  
    10     4    31 1   
    11     5     6 ar  
    12     5    22 1   
    13     6     7 ar  
    14     6     8 1   
    15     7    17 ar  
    16     7    32 1   
    17     8    20 1   
    18     9    20 1   
    19     9    21 1   
    20     9    33 1   
    21     9    34 1   
    22    10    23 1   
    23    10    24 1   
    24    10    26 1   
    25    10    35 1   
    26    11    23 1   
    27    11    25 1   
    28    11    48 2   
    29    12    13 1   
    30    12    36 1   
    31    12    37 1   
    32    12    38 1   
    33    13    14 1   
    34    13    16 1   
    35    13    39 1   
    36    14    15 2   
    37    16    40 1   
    38    17    41 1   
    39    18    19 2   
    40    18    23 1   
    41    19    20 1   
    42    19    42 1   
    43    21    22 1   
    44    21    43 1   
    45    21    44 1   
    46    24    25 1   
    47    24    45 1   
    48    24    46 1   
    49    26    27 1   
    50    26    28 1   
    51    26    47 1   
@<TRIPOS>SUBSTRUCTURE
     1 MWF         1 TEMP              0 ****  ****    0 ROOT
