@<TRIPOS>MOLECULE
MWH
   96   103     1     0     0
SMALL
abcg2


@<TRIPOS>ATOM
      1 N1         -11.0710    18.9990    68.7550 no         1 MWH       0.713200
      2 N3         -15.8070    18.8550    71.5200 ns         1 MWH      -0.578300
      3 C4         -13.0210    20.8230    72.0120 ca         1 MWH       0.081000
      4 C5         -11.6580    20.7870    72.0090 ca         1 MWH      -0.237000
      5 C6         -10.9120    20.2360    70.9310 ca         1 MWH       0.463000
      6 C7          -8.8020    20.9340    71.9900 c3         1 MWH       0.221800
      7 C8          -7.3140    20.8290    71.6890 c6         1 MWH      -0.081700
      8 C10         -5.0270    21.5290    72.4340 c6         1 MWH       0.155100
      9 C13        -17.0420    18.4410    71.9490 c          1 MWH       0.661700
     10 C15        -18.0120    16.1610    72.1130 ca         1 MWH      -0.052000
     11 C17        -17.1350    14.4640    73.5970 cp         1 MWH       0.032000
     12 C20        -13.9450    17.5040    73.7420 ca         1 MWH       0.053100
     13 C21        -13.0890    18.2060    74.6040 ca         1 MWH       0.342900
     14 C22        -11.3120    17.6770    73.3520 ca         1 MWH       0.333500
     15 C24        -11.1590    16.4760    71.4210 cc         1 MWH      -0.242200
     16 C26        -13.4420    16.8400    72.6380 ca         1 MWH      -0.119000
     17 C28        -17.5690    12.0090    73.3880 ca         1 MWH      -0.041500
     18 C1         -11.6810    19.6680    69.8690 ca         1 MWH      -0.310200
     19 C11         -5.2770    19.3810    71.5450 c6         1 MWH       0.155100
     20 C12         -6.7860    19.3950    71.7400 c6         1 MWH      -0.112900
     21 C14        -17.0470    17.0730    72.5360 ca         1 MWH      -0.174600
     22 C16        -18.0490    14.8780    72.6210 ca         1 MWH      -0.121000
     23 C18        -16.1890    15.3870    74.0430 ca         1 MWH      -0.137000
     24 C19        -16.1500    16.6690    73.5240 ca         1 MWH       0.132100
     25 C2         -13.0690    19.7450    69.8600 ca         1 MWH       0.107000
     26 C23         -9.9230    16.9300    71.7900 cd         1 MWH      -0.146100
     27 C25        -12.0690    16.9410    72.4120 ca         1 MWH      -0.102800
     28 C27        -17.1830    13.1070    74.1590 cp         1 MWH      -0.119000
     29 C29        -17.6200    10.7300    73.9080 ca         1 MWH      -0.198500
     30 C3         -13.7360    20.3210    70.9150 ca         1 MWH      -0.390500
     31 C30        -17.2850    10.4830    75.2520 ca         1 MWH       0.361000
     32 C31        -16.9010    11.5880    76.0340 ca         1 MWH      -0.198500
     33 C32        -16.8510    12.8580    75.4930 ca         1 MWH      -0.041500
     34 C33        -16.9670     8.9420    77.1620 c5         1 MWH       0.226800
     35 C34        -17.2390     7.4510    77.2960 c5         1 MWH      -0.095400
     36 C35        -16.9950     6.9260    75.8870 c5         1 MWH      -0.084400
     37 C36        -17.5650     8.0410    74.9960 c5         1 MWH       0.285800
     38 C37        -19.0300     7.8170    74.6730 ca         1 MWH      -0.094300
     39 C38        -20.0410     8.4750    75.3670 ca         1 MWH      -0.084000
     40 C39        -21.3800     8.2440    75.0910 ca         1 MWH      -0.108000
     41 C40        -21.7400     7.3430    74.0990 ca         1 MWH      -0.099000
     42 C41        -20.7540     6.6760    73.3880 ca         1 MWH      -0.104000
     43 C42        -19.4220     6.9200    73.6820 ca         1 MWH       0.122000
     44 C9          -6.5190    21.6790    72.6790 c6         1 MWH      -0.112900
     45 N4         -11.7840    18.2890    74.4230 nb         1 MWH      -0.657000
     46 N5         -10.0110    17.6400    72.9510 na         1 MWH      -0.326400
     47 N6         -17.3320     9.2320    75.7850 nh         1 MWH      -0.836400
     48 O1         -11.7820    18.5090    67.9070 o          1 MWH      -0.424500
     49 O2          -9.8550    18.9370    68.7020 o          1 MWH      -0.424500
     50 O3          -4.6110    20.1830    72.4940 os         1 MWH      -0.444000
     51 O4         -15.9540    21.3620    71.8720 o          1 MWH      -0.518500
     52 O5         -15.9690    20.4640    69.5360 o          1 MWH      -0.518500
     53 O6         -18.0370    19.1180    71.8320 o          1 MWH      -0.533100
     54 O7         -15.2750    17.5800    74.0500 os         1 MWH      -0.246200
     55 S1         -15.4880    20.3930    70.9010 sy         1 MWH       1.196300
     56 CL1        -18.2150     6.0590    72.7690 cl         1 MWH      -0.214000
     57 H1         -15.0730    18.1740    71.3770 hn         1 MWH       0.336500
     58 H2         -13.5370    21.2510    72.8600 ha         1 MWH       0.149000
     59 H3         -11.1290    21.1900    72.8600 ha         1 MWH       0.131000
     60 H4          -9.0870    21.9890    72.0560 h1         1 MWH       0.054700
     61 H5          -9.0080    20.4850    72.9670 h1         1 MWH       0.054700
     62 H6          -7.1380    21.2290    70.6820 hc         1 MWH       0.063700
     63 H7          -4.4570    22.0720    73.1900 h1         1 MWH       0.049950
     64 H8          -4.7740    21.9630    71.4550 h1         1 MWH       0.049950
     65 H9         -18.7370    16.4600    71.3660 ha         1 MWH       0.134000
     66 H10        -13.5060    18.7100    75.4690 h4         1 MWH       0.040100
     67 H11        -11.3860    15.8900    70.5450 ha         1 MWH       0.217000
     68 H12        -14.0730    16.2570    71.9750 ha         1 MWH       0.134000
     69 H13        -17.8200    12.1440    72.3420 ha         1 MWH       0.111500
     70 H14         -4.8860    18.3680    71.6500 h1         1 MWH       0.049950
     71 H15         -5.0420    19.7210    70.5250 h1         1 MWH       0.049950
     72 H16         -7.2410    18.7640    70.9720 hc         1 MWH       0.051950
     73 H17         -7.0350    18.9490    72.7090 hc         1 MWH       0.051950
     74 H18        -18.8180    14.2000    72.2740 ha         1 MWH       0.125000
     75 H19        -15.4660    15.1130    74.8020 ha         1 MWH       0.132000
     76 H20        -13.6140    19.3410    69.0190 ha         1 MWH       0.164000
     77 H21         -8.9710    16.7980    71.3020 h4         1 MWH       0.220000
     78 H22        -17.9250     9.9230    73.2560 ha         1 MWH       0.117000
     79 H23        -16.6430    11.4610    77.0760 ha         1 MWH       0.117000
     80 H24        -16.5660    13.6760    76.1430 ha         1 MWH       0.111500
     81 H25        -15.9110     9.1740    77.3440 h1         1 MWH       0.044700
     82 H26        -17.5590     9.5330    77.8650 h1         1 MWH       0.044700
     83 H27        -18.2750     7.2790    77.5960 hc         1 MWH       0.057200
     84 H28        -16.5980     6.9810    78.0410 hc         1 MWH       0.057200
     85 H29        -17.4570     5.9580    75.6990 hc         1 MWH       0.062200
     86 H30        -15.9250     6.8280    75.6980 hc         1 MWH       0.062200
     87 H31        -17.0010     8.0940    74.0600 h1         1 MWH       0.076700
     88 H32        -19.7720     9.1860    76.1380 ha         1 MWH       0.127000
     89 H33        -22.1420     8.7710    75.6500 ha         1 MWH       0.120000
     90 H34        -22.7810     7.1580    73.8740 ha         1 MWH       0.120000
     91 H35        -21.0190     5.9730    72.6090 ha         1 MWH       0.130000
     92 H36         -6.7930    22.7330    72.5880 hc         1 MWH       0.051950
     93 H37         -6.7580    21.3710    73.7020 hc         1 MWH       0.051950
     94 H38         -9.0940    19.8910    70.1690 hn         1 MWH       0.535000
     95 H39         -9.2400    18.0680    73.4370 hn         1 MWH       0.358000
     96 N2          -9.5830    20.2810    70.9590 nu         1 MWH      -0.931200
@<TRIPOS>BOND
     1     1    18 1   
     2     1    48 1   
     3     1    49 1   
     4     2     9 1   
     5     2    55 1   
     6     2    57 1   
     7     3     4 ar  
     8     3    30 ar  
     9     3    58 1   
    10     4     5 ar  
    11     4    59 1   
    12     5    18 ar  
    13     5    96 1   
    14     6     7 1   
    15     6    60 1   
    16     6    61 1   
    17     6    96 1   
    18     7    20 1   
    19     7    44 1   
    20     7    62 1   
    21     8    44 1   
    22     8    50 1   
    23     8    63 1   
    24     8    64 1   
    25     9    21 1   
    26     9    53 2   
    27    10    21 ar  
    28    10    22 ar  
    29    10    65 1   
    30    11    22 ar  
    31    11    23 ar  
    32    11    28 1   
    33    12    13 ar  
    34    12    16 ar  
    35    12    54 1   
    36    13    45 ar  
    37    13    66 1   
    38    14    27 ar  
    39    14    45 ar  
    40    14    46 1   
    41    15    26 2   
    42    15    27 1   
    43    15    67 1   
    44    16    27 ar  
    45    16    68 1   
    46    17    28 ar  
    47    17    29 ar  
    48    17    69 1   
    49    18    25 ar  
    50    19    20 1   
    51    19    50 1   
    52    19    70 1   
    53    19    71 1   
    54    20    72 1   
    55    20    73 1   
    56    21    24 ar  
    57    22    74 1   
    58    23    24 ar  
    59    23    75 1   
    60    24    54 1   
    61    25    30 ar  
    62    25    76 1   
    63    26    46 1   
    64    26    77 1   
    65    28    33 ar  
    66    29    31 ar  
    67    29    78 1   
    68    30    55 1   
    69    31    32 ar  
    70    31    47 1   
    71    32    33 ar  
    72    32    79 1   
    73    33    80 1   
    74    34    35 1   
    75    34    47 1   
    76    34    81 1   
    77    34    82 1   
    78    35    36 1   
    79    35    83 1   
    80    35    84 1   
    81    36    37 1   
    82    36    85 1   
    83    36    86 1   
    84    37    38 1   
    85    37    47 1   
    86    37    87 1   
    87    38    39 ar  
    88    38    43 ar  
    89    39    40 ar  
    90    39    88 1   
    91    40    41 ar  
    92    40    89 1   
    93    41    42 ar  
    94    41    90 1   
    95    42    43 ar  
    96    42    91 1   
    97    43    56 1   
    98    44    92 1   
    99    44    93 1   
   100    46    95 1   
   101    51    55 2   
   102    52    55 2   
   103    94    96 1   
@<TRIPOS>SUBSTRUCTURE
     1 MWH         1 TEMP              0 ****  ****    0 ROOT
