@<TRIPOS>MOLECULE
MWH
   96   103     1     0     0
SMALL
No Charge or Current Charge


@<TRIPOS>ATOM
      1 N1         -10.9240    19.4370    68.9410 no         1 MWH       0.713200
      2 N3         -16.0530    19.2630    71.6400 ns         1 MWH      -0.578300
      3 C4         -13.2860    21.3290    72.0270 ca         1 MWH       0.081000
      4 C5         -11.8900    21.3320    72.1220 ca         1 MWH      -0.237000
      5 C6         -11.0940    20.7260    71.1380 ca         1 MWH       0.463000
      6 C7          -8.9630    20.6910    72.5480 c3         1 MWH       0.221800
      7 C8          -7.4280    20.6860    72.2950 c6         1 MWH      -0.081700
      8 C10         -5.1110    20.7870    73.3680 c6         1 MWH       0.155100
      9 C13        -17.1580    18.4880    71.5450 c          1 MWH       0.661700
     10 C15        -18.1370    16.2170    71.9990 ca         1 MWH      -0.052000
     11 C17        -17.1150    14.5580    73.4960 cp         1 MWH       0.032000
     12 C20        -13.7780    17.4780    73.1320 ca         1 MWH       0.053100
     13 C21        -12.7140    17.9750    73.9300 ca         1 MWH       0.342900
     14 C22        -11.1330    17.3090    72.3910 ca         1 MWH       0.333500
     15 C24        -11.4910    16.2710    70.3950 cc         1 MWH      -0.242200
     16 C26        -13.4740    16.8720    71.8950 ca         1 MWH      -0.119000
     17 C28        -17.5710    12.0630    73.4300 ca         1 MWH      -0.041500
     18 C1         -11.7040    20.1050    70.0260 ca         1 MWH      -0.310200
     19 C11         -5.3990    19.4210    71.3920 c6         1 MWH       0.155100
     20 C12         -6.9390    19.4070    71.5510 c6         1 MWH      -0.112900
     21 C14        -17.1130    17.1540    72.2690 ca         1 MWH      -0.174600
     22 C16        -18.1350    14.9460    72.5990 ca         1 MWH      -0.121000
     23 C18        -16.0990    15.5000    73.7740 ca         1 MWH      -0.137000
     24 C19        -16.0890    16.7730    73.1790 ca         1 MWH       0.132100
     25 C2         -13.1150    20.0950    69.9350 ca         1 MWH       0.107000
     26 C23        -10.1270    16.4550    70.5530 cd         1 MWH      -0.146100
     27 C25        -12.1160    16.8120    71.5620 ca         1 MWH      -0.102800
     28 C27        -17.1140    13.2040    74.1330 cp         1 MWH      -0.119000
     29 C29        -17.5690    10.7920    74.0290 ca         1 MWH      -0.198500
     30 C3         -13.8980    20.7100    70.9280 ca         1 MWH      -0.390500
     31 C30        -17.1140    10.6130    75.3500 ca         1 MWH       0.361000
     32 C31        -16.6570    11.7440    76.0550 ca         1 MWH      -0.198500
     33 C32        -16.6560    13.0160    75.4590 ca         1 MWH      -0.041500
     34 C33        -16.7830     9.0860    77.3870 c5         1 MWH       0.226800
     35 C34        -17.2670     7.6300    77.5930 c5         1 MWH      -0.095400
     36 C35        -16.8890     6.9870    76.2350 c5         1 MWH      -0.084400
     37 C36        -17.3650     8.0610    75.2110 c5         1 MWH       0.285800
     38 C37        -18.8440     7.7640    74.8920 ca         1 MWH      -0.094300
     39 C38        -19.8960     8.4510    75.5450 ca         1 MWH      -0.084000
     40 C39        -21.2400     8.1760    75.2380 ca         1 MWH      -0.108000
     41 C40        -21.5590     7.2110    74.2720 ca         1 MWH      -0.099000
     42 C41        -20.5290     6.5230    73.6120 ca         1 MWH      -0.104000
     43 C42        -19.1840     6.7960    73.9150 ca         1 MWH       0.122000
     44 C9          -6.6370    20.8460    73.6230 c6         1 MWH      -0.112900
     45 N4         -11.4030    17.8890    73.5760 nb         1 MWH      -0.657000
     46 N5          -9.9040    17.0970    71.7970 na         1 MWH      -0.326400
     47 N6         -17.1150     9.3290    75.9560 nh         1 MWH      -0.836400
     48 O1         -11.5410    18.7140    68.1500 o          1 MWH      -0.424500
     49 O2          -9.7290    19.7230    68.7940 o          1 MWH      -0.424500
     50 O3          -4.7740    19.5600    72.6860 os         1 MWH      -0.444000
     51 O4         -16.2430    21.7570    71.6030 o          1 MWH      -0.518500
     52 O5         -16.0690    20.4400    69.4120 o          1 MWH      -0.518500
     53 O6         -18.1370    18.8410    70.9050 o          1 MWH      -0.533100
     54 O7         -15.0830    17.6350    73.5530 os         1 MWH      -0.246200
     55 S1         -15.6830    20.6580    70.8090 sy         1 MWH       1.196300
     56 Cl1        -17.9390     5.8990    73.0430 cl         1 MWH      -0.214000
     57 H1         -15.2810    18.9430    72.1950 hn         1 MWH       0.336500
     58 H2         -13.8780    21.8050    72.8090 ha         1 MWH       0.149000
     59 H3         -11.4280    21.8220    72.9710 ha         1 MWH       0.131000
     60 H4          -9.2040    21.5520    73.1870 h1         1 MWH       0.054700
     61 H5          -9.2400    19.7790    73.0960 h1         1 MWH       0.054700
     62 H6          -7.2140    21.5640    71.6670 hc         1 MWH       0.063700
     63 H7          -4.5680    20.8280    74.3230 h1         1 MWH       0.049950
     64 H8          -4.7910    21.6440    72.7560 h1         1 MWH       0.049950
     65 H9         -18.9420    16.4640    71.3100 ha         1 MWH       0.134000
     66 H10        -12.9250    18.4580    74.8830 h4         1 MWH       0.040100
     67 H11        -11.9770    15.8080    69.5380 ha         1 MWH       0.217000
     68 H12        -14.2400    16.4810    71.2300 ha         1 MWH       0.134000
     69 H13        -17.9200    12.1600    72.4050 ha         1 MWH       0.111500
     70 H14         -5.0600    18.4820    70.9300 h1         1 MWH       0.049950
     71 H15         -5.0870    20.2530    70.7440 h1         1 MWH       0.049950
     72 H16         -7.4040    19.3290    70.5590 hc         1 MWH       0.051950
     73 H17         -7.2330    18.5100    72.1100 hc         1 MWH       0.051950
     74 H18        -18.9450    14.2590    72.3700 ha         1 MWH       0.125000
     75 H19        -15.2970    15.2400    74.4590 ha         1 MWH       0.132000
     76 H20        -13.6100    19.6110    69.0920 ha         1 MWH       0.164000
     77 H21         -9.3110    16.1810    69.8840 h4         1 MWH       0.220000
     78 H22        -17.9300     9.9490    73.4490 ha         1 MWH       0.117000
     79 H23        -16.2940    11.6500    77.0730 ha         1 MWH       0.117000
     80 H24        -16.3070    13.8670    76.0400 ha         1 MWH       0.111500
     81 H25        -15.7020     9.1760    77.5600 h1         1 MWH       0.044700
     82 H26        -17.3060     9.7750    78.0650 h1         1 MWH       0.044700
     83 H27        -18.3470     7.5880    77.7750 hc         1 MWH       0.057200
     84 H28        -16.7750     7.1460    78.4440 hc         1 MWH       0.057200
     85 H29        -17.3540     6.0070    76.0850 hc         1 MWH       0.062200
     86 H30        -15.8050     6.8410    76.1620 hc         1 MWH       0.062200
     87 H31        -16.7540     8.0130    74.2980 h1         1 MWH       0.076700
     88 H32        -19.6780     9.2060    76.2960 ha         1 MWH       0.127000
     89 H33        -22.0340     8.7130    75.7520 ha         1 MWH       0.120000
     90 H34        -22.5990     6.9970    74.0350 ha         1 MWH       0.120000
     91 H35        -20.7720     5.7760    72.8600 ha         1 MWH       0.130000
     92 H36         -6.8910    21.8000    74.1050 hc         1 MWH       0.051950
     93 H37         -6.9180    20.0520    74.3290 hc         1 MWH       0.051950
     94 H38         -9.2170    20.4530    70.4560 hn         1 MWH       0.535000
     95 H39         -9.0110    17.3460    72.2030 hn         1 MWH       0.358000
     96 N2          -9.7120    20.7810    71.2880 nu         1 MWH      -0.931200
@<TRIPOS>BOND
     1     1    18 1   
     2     1    48 1   
     3     1    49 1   
     4     2     9 1   
     5     2    55 1   
     6     2    57 1   
     7     3     4 ar  
     8     3    30 ar  
     9     3    58 1   
    10     4     5 ar  
    11     4    59 1   
    12     5    18 ar  
    13     5    96 1   
    14     6     7 1   
    15     6    60 1   
    16     6    61 1   
    17     6    96 1   
    18     7    20 1   
    19     7    44 1   
    20     7    62 1   
    21     8    44 1   
    22     8    50 1   
    23     8    63 1   
    24     8    64 1   
    25     9    21 1   
    26     9    53 2   
    27    10    21 ar  
    28    10    22 ar  
    29    10    65 1   
    30    11    22 ar  
    31    11    23 ar  
    32    11    28 1   
    33    12    13 ar  
    34    12    16 ar  
    35    12    54 1   
    36    13    45 ar  
    37    13    66 1   
    38    14    27 ar  
    39    14    45 ar  
    40    14    46 1   
    41    15    26 2   
    42    15    27 1   
    43    15    67 1   
    44    16    27 ar  
    45    16    68 1   
    46    17    28 ar  
    47    17    29 ar  
    48    17    69 1   
    49    18    25 ar  
    50    19    20 1   
    51    19    50 1   
    52    19    70 1   
    53    19    71 1   
    54    20    72 1   
    55    20    73 1   
    56    21    24 ar  
    57    22    74 1   
    58    23    24 ar  
    59    23    75 1   
    60    24    54 1   
    61    25    30 ar  
    62    25    76 1   
    63    26    46 1   
    64    26    77 1   
    65    28    33 ar  
    66    29    31 ar  
    67    29    78 1   
    68    30    55 1   
    69    31    32 ar  
    70    31    47 1   
    71    32    33 ar  
    72    32    79 1   
    73    33    80 1   
    74    34    35 1   
    75    34    47 1   
    76    34    81 1   
    77    34    82 1   
    78    35    36 1   
    79    35    83 1   
    80    35    84 1   
    81    36    37 1   
    82    36    85 1   
    83    36    86 1   
    84    37    38 1   
    85    37    47 1   
    86    37    87 1   
    87    38    39 ar  
    88    38    43 ar  
    89    39    40 ar  
    90    39    88 1   
    91    40    41 ar  
    92    40    89 1   
    93    41    42 ar  
    94    41    90 1   
    95    42    43 ar  
    96    42    91 1   
    97    43    56 1   
    98    44    92 1   
    99    44    93 1   
   100    46    95 1   
   101    51    55 2   
   102    52    55 2   
   103    94    96 1   
@<TRIPOS>SUBSTRUCTURE
     1 MWH         1 TEMP              0 ****  ****    0 ROOT
