@<TRIPOS>MOLECULE
MWI
   62    65     1     0     0
SMALL
No Charge or Current Charge


@<TRIPOS>ATOM
      1 C1          51.3980   103.7050    75.5570 c6         1 MWI      -0.054700
      2 C10         48.2660   101.4680    74.5100 c6         1 MWI       0.157800
      3 C11         54.4120   106.9290    75.3320 c          1 MWI       0.630700
      4 C12         54.3680   107.9820    74.2480 ca         1 MWI      -0.227600
      5 C13         54.8560   109.2760    74.5170 ca         1 MWI      -0.009000
      6 C14         54.8500   110.2800    73.5260 ca         1 MWI      -0.202300
      7 C15         53.9030   107.6870    72.9500 ca         1 MWI      -0.035000
      8 C16         54.3550   109.9760    72.2360 ca         1 MWI       0.376000
      9 C17         55.3840   111.6590    73.8910 c3         1 MWI       0.161300
     10 C18         54.4730   112.3850    71.2540 c3         1 MWI       0.174500
     11 C19         53.8940   108.6820    71.9620 ca         1 MWI      -0.219000
     12 C2          50.5940   102.4410    75.0670 c6         1 MWI      -0.054700
     13 C20         53.7740   113.0070    72.5300 c          1 MWI       0.563000
     14 C21         54.0070   112.9780    69.9000 c3         1 MWI      -0.216400
     15 C23         54.5980   114.3840    69.7380 c          1 MWI       0.726000
     16 C3          52.9210   103.4190    75.6990 c6         1 MWI      -0.088400
     17 C4          51.2340   104.9200    74.6000 c6         1 MWI      -0.088400
     18 C5          50.7690   101.2170    76.0230 c6         1 MWI      -0.072400
     19 C6          49.0660   102.7320    74.9140 c6         1 MWI      -0.072400
     20 C7          53.7230   104.6690    76.1320 c6         1 MWI       0.099500
     21 C8          52.0550   106.1450    75.0610 c6         1 MWI       0.099500
     22 C9          49.9150   100.0030    75.5830 c6         1 MWI       0.157800
     23 N1          53.5030   105.8510    75.2560 n          1 MWI      -0.416800
     24 N2          48.4850   100.3610    75.4650 n7         1 MWI      -0.863400
     25 N3          54.2960   110.9030    71.1900 nu         1 MWI      -0.952200
     26 N4          54.3610   112.7170    73.7810 n          1 MWI      -0.411800
     27 O1          55.2790   106.9640    76.1980 o          1 MWI      -0.622100
     28 O2          52.7680   113.7080    72.4660 o          1 MWI      -0.546000
     29 O3          55.7360   114.4760    69.3050 o          1 MWI      -0.730000
     30 O4          53.9280   115.3450    70.0800 o          1 MWI      -0.730000
     31 H1          51.0130   103.9950    76.5460 hc         1 MWI       0.044700
     32 H3          47.1940   101.7090    74.4690 h1         1 MWI       0.027450
     33 H4          55.2350   109.5070    75.5110 ha         1 MWI       0.114000
     34 H5          53.5600   106.6860    72.6970 ha         1 MWI       0.104000
     35 H6          55.7730   111.6400    74.9170 h1         1 MWI       0.057700
     36 H7          56.2400   111.9030    73.2500 h1         1 MWI       0.057700
     37 H8          55.5440   112.6100    71.3560 h1         1 MWI       0.093700
     38 H9          53.5250   108.4370    70.9700 ha         1 MWI       0.110000
     39 H10         50.9800   102.1530    74.0790 hc         1 MWI       0.042700
     40 H11         52.9110   112.9980    69.9020 hc         1 MWI       0.038200
     41 H12         54.4340   112.3290    69.1260 hc         1 MWI       0.038200
     42 H13         54.4750   113.1130    75.8710 h1         1 MWI       0.034700
     43 H14         53.5940   114.3340    74.9190 h1         1 MWI       0.034700
     44 H15         52.8390   112.7460    75.2510 h1         1 MWI       0.034700
     45 H16         53.1050   102.6350    76.4430 hc         1 MWI       0.046200
     46 H17         53.3200   103.0470    74.7450 hc         1 MWI       0.046200
     47 H18         50.1850   105.2310    74.5380 hc         1 MWI       0.046200
     48 H19         51.5410   104.6400    73.5820 hc         1 MWI       0.046200
     49 H20         50.4990   101.5010    77.0490 hc         1 MWI       0.046700
     50 H21         51.8160   100.8910    76.0510 hc         1 MWI       0.046700
     51 H22         48.6640   103.1320    75.8550 hc         1 MWI       0.046700
     52 H23         48.8890   103.4940    74.1460 hc         1 MWI       0.046700
     53 H24         54.7930   104.4130    76.1380 h1         1 MWI       0.053200
     54 H25         53.4460   104.9360    77.1620 h1         1 MWI       0.053200
     55 H26         51.9100   106.9600    74.3410 h1         1 MWI       0.053200
     56 H27         51.6470   106.5020    76.0180 h1         1 MWI       0.053200
     57 H28         50.2790    99.6320    74.6130 h1         1 MWI       0.027450
     58 H29         50.0290    99.1890    76.3140 h1         1 MWI       0.027450
     59 H30         47.9630    99.5370    75.1410 hn         1 MWI       0.404000
     60 H32         53.9190   110.5320    70.3180 hn         1 MWI       0.476000
     61 C22         53.7840   113.2590    75.0310 c3         1 MWI       0.087300
     62 H2          48.5740   101.1480    73.5030 h1         1 MWI       0.027450
@<TRIPOS>BOND
     1     1    12 1   
     2     1    16 1   
     3     1    17 1   
     4     1    31 1   
     5     2    19 1   
     6     2    24 1   
     7     2    32 1   
     8     2    62 1   
     9     3     4 1   
    10     3    23 1   
    11     3    27 2   
    12     4     5 ar  
    13     4     7 ar  
    14     5     6 ar  
    15     5    33 1   
    16     6     8 ar  
    17     6     9 1   
    18     7    11 ar  
    19     7    34 1   
    20     8    11 ar  
    21     8    25 1   
    22     9    26 1   
    23     9    35 1   
    24     9    36 1   
    25    10    13 1   
    26    10    14 1   
    27    10    25 1   
    28    10    37 1   
    29    11    38 1   
    30    12    18 1   
    31    12    19 1   
    32    12    39 1   
    33    13    26 1   
    34    13    28 2   
    35    14    15 1   
    36    14    40 1   
    37    14    41 1   
    38    15    29 1   
    39    15    30 1   
    40    16    20 1   
    41    16    45 1   
    42    16    46 1   
    43    17    21 1   
    44    17    47 1   
    45    17    48 1   
    46    18    22 1   
    47    18    49 1   
    48    18    50 1   
    49    19    51 1   
    50    19    52 1   
    51    20    23 1   
    52    20    53 1   
    53    20    54 1   
    54    21    23 1   
    55    21    55 1   
    56    21    56 1   
    57    22    24 1   
    58    22    57 1   
    59    22    58 1   
    60    24    59 1   
    61    25    60 1   
    62    26    61 1   
    63    42    61 1   
    64    43    61 1   
    65    44    61 1   
@<TRIPOS>SUBSTRUCTURE
     1 MWI         1 TEMP              0 ****  ****    0 ROOT
