@<TRIPOS>MOLECULE
MWI
   62    65     1     0     0
SMALL
abcg2


@<TRIPOS>ATOM
      1 C1          51.4900   103.9070    75.6440 c6         1 MWI      -0.054700
      2 C10         48.4460   101.8780    74.2620 c6         1 MWI       0.157800
      3 C11         54.6740   106.6750    75.1930 c          1 MWI       0.630700
      4 C12         54.4670   107.7350    74.1630 ca         1 MWI      -0.227600
      5 C13         54.9890   109.0100    74.3690 ca         1 MWI      -0.009000
      6 C14         54.8610   110.0280    73.4340 ca         1 MWI      -0.202300
      7 C15         53.8150   107.4800    72.9550 ca         1 MWI      -0.035000
      8 C16         54.2000   109.7630    72.2130 ca         1 MWI       0.376000
      9 C17         55.3660   111.4120    73.7650 c3         1 MWI       0.161300
     10 C18         54.3380   112.1290    71.3010 c3         1 MWI       0.174500
     11 C19         53.6910   108.4680    71.9990 ca         1 MWI      -0.219000
     12 C2          50.7090   102.7300    75.0340 c6         1 MWI      -0.054700
     13 C20         53.6770   112.7230    72.5550 c          1 MWI       0.563000
     14 C21         53.8610   112.8150    70.0360 c3         1 MWI      -0.216400
     15 C23         54.2780   114.2920    69.9080 c          1 MWI       0.726000
     16 C3          52.9740   103.5780    75.8620 c6         1 MWI      -0.088400
     17 C4          51.3840   105.1840    74.7990 c6         1 MWI      -0.088400
     18 C5          50.7930   101.4620    75.8970 c6         1 MWI      -0.072400
     19 C6          49.2320   103.0740    74.7880 c6         1 MWI      -0.072400
     20 C7          53.7670   104.7590    76.4170 c6         1 MWI       0.099500
     21 C8          52.2050   106.3210    75.3910 c6         1 MWI       0.099500
     22 C9          49.9510   100.3270    75.3260 c6         1 MWI       0.157800
     23 N1          53.6030   105.9320    75.5640 n          1 MWI      -0.416800
     24 N2          48.5570   100.7500    75.1870 n7         1 MWI      -0.863400
     25 N3          54.0410   110.6960    71.2130 nu         1 MWI      -0.952200
     26 N4          54.2920   112.4130    73.7210 n          1 MWI      -0.411800
     27 O1          55.8070   106.4770    75.6570 o          1 MWI      -0.622100
     28 O2          52.6420   113.3870    72.5000 o          1 MWI      -0.546000
     29 O3          55.1540   114.7270    70.6970 o          1 MWI      -0.730000
     30 O4          53.7130   114.9410    68.9910 o          1 MWI      -0.730000
     31 H1          51.0480   104.1240    76.6270 hc         1 MWI       0.044700
     32 H3          47.3910   102.1390    74.1520 h1         1 MWI       0.027450
     33 H4          55.4960   109.2260    75.3020 ha         1 MWI       0.114000
     34 H5          53.4090   106.4960    72.7550 ha         1 MWI       0.104000
     35 H6          55.7670   111.4160    74.7760 h1         1 MWI       0.057700
     36 H7          56.1800   111.7150    73.1070 h1         1 MWI       0.057700
     37 H8          55.4130   112.2740    71.3670 h1         1 MWI       0.093700
     38 H9          53.1940   108.2530    71.0600 ha         1 MWI       0.110000
     39 H10         51.1630   102.5010    74.0590 hc         1 MWI       0.042700
     40 H11         52.7750   112.7500    69.9550 hc         1 MWI       0.038200
     41 H12         54.2790   112.2800    69.1780 hc         1 MWI       0.038200
     42 H13         54.4600   113.0570    75.6990 h1         1 MWI       0.034700
     43 H14         53.0060   113.6120    74.8400 h1         1 MWI       0.034700
     44 H15         53.1150   111.9350    75.4090 h1         1 MWI       0.034700
     45 H16         53.0890   102.7430    76.5530 hc         1 MWI       0.046200
     46 H17         53.4170   103.2720    74.9080 hc         1 MWI       0.046200
     47 H18         50.3490   105.5170    74.7270 hc         1 MWI       0.046200
     48 H19         51.7320   104.9780    73.7810 hc         1 MWI       0.046200
     49 H20         50.4420   101.6950    76.9090 hc         1 MWI       0.046700
     50 H21         51.8260   101.1210    75.9830 hc         1 MWI       0.046700
     51 H22         48.7820   103.4130    75.7280 hc         1 MWI       0.046700
     52 H23         49.1410   103.8920    74.0720 hc         1 MWI       0.046700
     53 H24         54.8260   104.5250    76.4750 h1         1 MWI       0.053200
     54 H25         53.4190   105.0030    77.4280 h1         1 MWI       0.053200
     55 H26         52.1450   107.2120    74.7760 h1         1 MWI       0.053200
     56 H27         51.8060   106.5770    76.3810 h1         1 MWI       0.053200
     57 H28         50.3790   100.0200    74.3570 h1         1 MWI       0.027450
     58 H29         49.9890    99.4590    75.9890 h1         1 MWI       0.027450
     59 H30         48.0010    99.9760    74.8430 hn         1 MWI       0.404000
     60 H32         53.3330   110.4630    70.5330 hn         1 MWI       0.476000
     61 C22         53.6800   112.7740    74.9930 c3         1 MWI       0.087300
     62 H2          48.8260   101.6180    73.2590 h1         1 MWI       0.027450
@<TRIPOS>BOND
     1     1    12 1   
     2     1    16 1   
     3     1    17 1   
     4     1    31 1   
     5     2    19 1   
     6     2    24 1   
     7     2    32 1   
     8     2    62 1   
     9     3     4 1   
    10     3    23 1   
    11     3    27 2   
    12     4     5 ar  
    13     4     7 ar  
    14     5     6 ar  
    15     5    33 1   
    16     6     8 ar  
    17     6     9 1   
    18     7    11 ar  
    19     7    34 1   
    20     8    11 ar  
    21     8    25 1   
    22     9    26 1   
    23     9    35 1   
    24     9    36 1   
    25    10    13 1   
    26    10    14 1   
    27    10    25 1   
    28    10    37 1   
    29    11    38 1   
    30    12    18 1   
    31    12    19 1   
    32    12    39 1   
    33    13    26 1   
    34    13    28 2   
    35    14    15 1   
    36    14    40 1   
    37    14    41 1   
    38    15    29 1   
    39    15    30 1   
    40    16    20 1   
    41    16    45 1   
    42    16    46 1   
    43    17    21 1   
    44    17    47 1   
    45    17    48 1   
    46    18    22 1   
    47    18    49 1   
    48    18    50 1   
    49    19    51 1   
    50    19    52 1   
    51    20    23 1   
    52    20    53 1   
    53    20    54 1   
    54    21    23 1   
    55    21    55 1   
    56    21    56 1   
    57    22    24 1   
    58    22    57 1   
    59    22    58 1   
    60    24    59 1   
    61    25    60 1   
    62    26    61 1   
    63    42    61 1   
    64    43    61 1   
    65    44    61 1   
@<TRIPOS>SUBSTRUCTURE
     1 MWI         1 TEMP              0 ****  ****    0 ROOT
