@<TRIPOS>MOLECULE
MWJ
   16    16     1     0     0
SMALL
No Charge or Current Charge


@<TRIPOS>ATOM
      1 C4           1.4650     1.7150    -0.0170 ca         1 MWJ      -0.147000
      2 C1           2.8180    -1.8940    -0.0730 c3         1 MWJ      -0.051800
      3 C7           0.4770    -0.9130    -0.0430 ca         1 MWJ      -0.042000
      4 C2           1.8710    -0.6950    -0.0500 ca         1 MWJ      -0.170300
      5 C6          -0.4120     0.1750    -0.0230 ca         1 MWJ      -0.055900
      6 C3           2.3580     0.6320    -0.0370 ca         1 MWJ       0.156100
      7 C5           0.0780     1.4900    -0.0090 ca         1 MWJ      -0.048000
      8 Br1         -2.2990    -0.1370    -0.0130 br         1 MWJ      -0.100100
      9 O1           3.6980     0.8840    -0.0430 oh         1 MWJ      -0.535100
     10 H1           1.8480     2.7320    -0.0060 ha         1 MWJ       0.133000
     11 H2           3.4670    -1.9030     0.8110 hc         1 MWJ       0.044367
     12 H3           2.2700    -2.8440    -0.0810 hc         1 MWJ       0.044367
     13 H4           3.4550    -1.8800    -0.9650 hc         1 MWJ       0.044367
     14 H5           0.0800    -1.9260    -0.0540 ha         1 MWJ       0.126000
     15 H6          -0.6110     2.3320     0.0060 ha         1 MWJ       0.131000
     16 H7           4.1690     0.0250    -0.0570 ho         1 MWJ       0.470000
@<TRIPOS>BOND
     1     1     6 ar  
     2     1     7 ar  
     3     1    10 1   
     4     2     4 1   
     5     2    11 1   
     6     2    12 1   
     7     2    13 1   
     8     3     4 ar  
     9     3     5 ar  
    10     3    14 1   
    11     4     6 ar  
    12     5     7 ar  
    13     5     8 1   
    14     6     9 1   
    15     7    15 1   
    16     9    16 1   
@<TRIPOS>SUBSTRUCTURE
     1 MWJ         1 TEMP              0 ****  ****    0 ROOT
