@<TRIPOS>MOLECULE
MWJ
   16    16     1     0     0
SMALL
abcg2


@<TRIPOS>ATOM
      1 C4           1.4610     1.6810    -0.0170 ca         1 MWJ      -0.147000
      2 C1           2.7970    -1.8790    -0.0720 c3         1 MWJ      -0.051800
      3 C7           0.4780    -0.9050    -0.0430 ca         1 MWJ      -0.042000
      4 C2           1.8550    -0.7090    -0.0500 ca         1 MWJ      -0.170300
      5 C6          -0.3920     0.1740    -0.0230 ca         1 MWJ      -0.055900
      6 C3           2.3420     0.6040    -0.0370 ca         1 MWJ       0.156100
      7 C5           0.0910     1.4730    -0.0100 ca         1 MWJ      -0.048000
      8 BR1         -2.2580    -0.1320    -0.0140 br         1 MWJ      -0.100100
      9 O1           3.6580     0.8900    -0.0430 oh         1 MWJ      -0.535100
     10 H1           1.8520     2.6900    -0.0070 ha         1 MWJ       0.133000
     11 H2           3.4480    -1.8970     0.8040 hc         1 MWJ       0.044367
     12 H3           2.2470    -2.8180    -0.0810 hc         1 MWJ       0.044367
     13 H4           3.4350    -1.8740    -0.9590 hc         1 MWJ       0.044367
     14 H5           0.0970    -1.9180    -0.0530 ha         1 MWJ       0.126000
     15 H6          -0.5770     2.3220     0.0060 ha         1 MWJ       0.131000
     16 H7           4.1950     0.0900    -0.0560 ho         1 MWJ       0.470000
@<TRIPOS>BOND
     1     1     6 ar  
     2     1     7 ar  
     3     1    10 1   
     4     2     4 1   
     5     2    11 1   
     6     2    12 1   
     7     2    13 1   
     8     3     4 ar  
     9     3     5 ar  
    10     3    14 1   
    11     4     6 ar  
    12     5     7 ar  
    13     5     8 1   
    14     6     9 1   
    15     7    15 1   
    16     9    16 1   
@<TRIPOS>SUBSTRUCTURE
     1 MWJ         1 TEMP              0 ****  ****    0 ROOT
