@<TRIPOS>MOLECULE
MWL
   51    55     1     0     0
SMALL
No Charge or Current Charge


@<TRIPOS>ATOM
      1 C1           7.6740     1.6610    -0.5700 ca         1 MWL       0.155400
      2 N2           6.3430     1.5120    -0.4340 nb         1 MWL      -0.250500
      3 C6           8.5300     0.5530    -0.6300 ca         1 MWL      -0.287000
      4 C5           7.9480    -0.7200    -0.5430 ca         1 MWL       0.155400
      5 N4           6.6180    -0.8740    -0.4070 nb         1 MWL      -0.250500
      6 C3           5.8670     0.2490    -0.3550 ca         1 MWL       0.395900
      7 N7           4.4590     0.0890    -0.2190 nh         1 MWL      -0.779300
      8 C8           3.5650     1.2510     0.1310 c6         1 MWL       0.216800
      9 C9           2.0860     1.0650    -0.3370 c6         1 MWL       0.192300
     10 C12          3.8540    -1.2380     0.1660 c6         1 MWL       0.216800
     11 C11          2.3760    -1.4080    -0.3090 c6         1 MWL       0.192300
     12 N10          1.4980    -0.2510     0.0670 nh         1 MWL      -0.770300
     13 C13          0.0990    -0.4240     0.2090 ca         1 MWL       0.558900
     14 C14         -0.8410     0.5060    -0.2780 ca         1 MWL      -0.174000
     15 N18         -0.3020    -1.5630     0.8270 nb         1 MWL      -0.399000
     16 N17         -1.6080    -1.8440     1.0340 nb         1 MWL      -0.273000
     17 C16         -2.5990    -1.0100     0.6340 cp         1 MWL       0.304500
     18 C20         -3.9870    -1.3800     1.0780 cp         1 MWL      -0.139500
     19 C21         -4.9190    -0.3880     1.4810 ca         1 MWL      -0.084000
     20 C22         -6.2150    -0.7340     1.8980 ca         1 MWL      -0.116000
     21 C23         -6.6080    -2.0810     1.9310 ca         1 MWL      -0.101000
     22 C24         -5.7000    -3.0820     1.5510 ca         1 MWL      -0.116000
     23 C25         -4.4030    -2.7370     1.1340 ca         1 MWL      -0.084000
     24 C15         -2.2080     0.2200    -0.0940 cq         1 MWL      -0.003000
     25 C19         -3.1990     1.1300    -0.7720 cq         1 MWL      -0.008000
     26 C30         -4.3290     0.6180    -1.4400 ca         1 MWL      -0.146000
     27 C26         -3.0270     2.5280    -0.7830 ca         1 MWL      -0.146000
     28 C27         -3.9730     3.3380    -1.4330 ca         1 MWL       0.333900
     29 N28         -5.0600     2.8430    -2.0660 nb         1 MWL      -0.658000
     30 C29         -5.2250     1.5010    -2.0650 ca         1 MWL       0.333900
     31 H1           8.0540     2.6800    -0.6320 h4         1 MWL       0.020600
     32 H2           9.6040     0.6750    -0.7400 ha         1 MWL       0.136000
     33 H3           8.5510    -1.6270    -0.5840 h4         1 MWL       0.020600
     34 H4           3.5670     1.3990     1.2210 h1         1 MWL       0.073450
     35 H5           3.9270     2.1870    -0.3180 h1         1 MWL       0.073450
     36 H6           1.5010     1.8950     0.0860 h1         1 MWL       0.059700
     37 H7           2.0510     1.1650    -1.4320 h1         1 MWL       0.059700
     38 H8           4.4230    -2.0780    -0.2570 h1         1 MWL       0.073450
     39 H9           3.8810    -1.3520     1.2600 h1         1 MWL       0.073450
     40 H10          2.3760    -1.5250    -1.4030 h1         1 MWL       0.059700
     41 H11          2.0010    -2.3520     0.1110 h1         1 MWL       0.059700
     42 H12         -0.5160     1.3790    -0.8320 ha         1 MWL       0.132000
     43 H13         -4.6310     0.6610     1.4820 ha         1 MWL       0.120000
     44 H14         -6.9130     0.0430     2.2010 ha         1 MWL       0.114500
     45 H15         -7.6110    -2.3490     2.2550 ha         1 MWL       0.113000
     46 H16         -6.0010    -4.1270     1.5800 ha         1 MWL       0.114500
     47 H17         -3.7180    -3.5290     0.8390 ha         1 MWL       0.120000
     48 H18         -4.5230    -0.4490    -1.4930 ha         1 MWL       0.130500
     49 H19         -2.1850     3.0020    -0.2860 ha         1 MWL       0.130500
     50 H20         -3.8590     4.4220    -1.4450 h4         1 MWL       0.022100
     51 H21         -6.1040     1.1210    -2.5850 h4         1 MWL       0.022100
@<TRIPOS>BOND
     1     1     2 ar  
     2     1     3 ar  
     3     1    31 1   
     4     2     6 ar  
     5     3     4 ar  
     6     3    32 1   
     7     4     5 ar  
     8     4    33 1   
     9     5     6 ar  
    10     6     7 1   
    11     7     8 1   
    12     7    10 1   
    13     8     9 1   
    14     8    34 1   
    15     8    35 1   
    16     9    12 1   
    17     9    36 1   
    18     9    37 1   
    19    10    11 1   
    20    10    38 1   
    21    10    39 1   
    22    11    12 1   
    23    11    40 1   
    24    11    41 1   
    25    12    13 1   
    26    13    14 ar  
    27    13    15 ar  
    28    14    24 2   
    29    14    42 1   
    30    15    16 ar  
    31    16    17 ar  
    32    17    18 1   
    33    17    24 1   
    34    18    19 ar  
    35    18    23 ar  
    36    19    20 ar  
    37    19    43 1   
    38    20    21 ar  
    39    20    44 1   
    40    21    22 ar  
    41    21    45 1   
    42    22    23 ar  
    43    22    46 1   
    44    23    47 1   
    45    24    25 1   
    46    25    26 1   
    47    25    27 2   
    48    26    30 ar  
    49    26    48 1   
    50    27    28 ar  
    51    27    49 1   
    52    28    29 ar  
    53    28    50 1   
    54    29    30 ar  
    55    30    51 1   
@<TRIPOS>SUBSTRUCTURE
     1 MWL         1 TEMP              0 ****  ****    0 ROOT
