@<TRIPOS>MOLECULE
MWL
   51    55     1     0     0
SMALL
bcc


@<TRIPOS>ATOM
      1 C1           7.0670     1.2200    -1.6070 ca         1 MWL       0.483700
      2 N2           5.9060     1.3030    -0.9820 nb         1 MWL      -0.776500
      3 C6           7.8890     0.1070    -1.5340 ca         1 MWL      -0.435600
      4 C5           7.4100    -0.9300    -0.7490 ca         1 MWL       0.483700
      5 N4           6.2550    -0.8770    -0.1100 nb         1 MWL      -0.776500
      6 C3           5.5350     0.2450    -0.2480 ca         1 MWL       0.921900
      7 N7           4.3560     0.3190     0.4110 nh         1 MWL      -0.779300
      8 C8           3.4540     1.4400     0.3120 c6         1 MWL       0.216800
      9 C9           2.1290     1.0190    -0.3050 c6         1 MWL       0.192300
     10 C12          3.8030    -0.7680     1.1850 c6         1 MWL       0.216800
     11 C11          2.4860    -1.2380     0.5930 c6         1 MWL       0.192300
     12 N10          1.5670    -0.1260     0.3880 nh         1 MWL      -0.770300
     13 C13          0.2260    -0.3650     0.3710 ca         1 MWL       0.624200
     14 C14         -0.7150     0.5600    -0.1300 ca         1 MWL      -0.257300
     15 N18         -0.1880    -1.5390     0.8500 nb         1 MWL      -0.399000
     16 N17         -1.4610    -1.8100     0.9600 nb         1 MWL      -0.273000
     17 C16         -2.3980    -0.9660     0.5720 cp         1 MWL       0.369800
     18 C20         -3.7910    -1.3910     0.8230 cp         1 MWL      -0.139500
     19 C21         -4.7150    -0.5190     1.3970 ca         1 MWL      -0.102000
     20 C22         -6.0100    -0.9390     1.6590 ca         1 MWL      -0.134000
     21 C23         -6.4000    -2.2350     1.3490 ca         1 MWL      -0.119000
     22 C24         -5.4840    -3.1120     0.7830 ca         1 MWL      -0.134000
     23 C25         -4.1860    -2.6950     0.5260 ca         1 MWL      -0.102000
     24 C15         -2.0480     0.2580    -0.0400 cq         1 MWL      -0.068300
     25 C19         -3.0430     1.1740    -0.6310 cq         1 MWL      -0.008000
     26 C30         -3.9960     0.7200    -1.5380 ca         1 MWL      -0.229300
     27 C26         -3.0340     2.5310    -0.3280 ca         1 MWL      -0.229300
     28 C27         -3.9750     3.3570    -0.9260 ca         1 MWL       0.399200
     29 N28         -4.8860     2.9260    -1.7890 nb         1 MWL      -0.658000
     30 C29         -4.8830     1.6310    -2.0860 ca         1 MWL       0.399200
     31 H1           7.3560     2.0840    -2.1970 h4         1 MWL       0.020600
     32 H2           8.8340     0.0510    -2.0510 ha         1 MWL       0.154000
     33 H3           7.9820    -1.8440    -0.6300 h4         1 MWL       0.020600
     34 H4           3.2740     1.8420     1.3140 h1         1 MWL       0.073450
     35 H5           3.8960     2.2270    -0.2920 h1         1 MWL       0.073450
     36 H6           1.4600     1.8730    -0.2270 h1         1 MWL       0.059700
     37 H7           2.2690     0.7990    -1.3710 h1         1 MWL       0.059700
     38 H8           4.5000    -1.6000     1.2090 h1         1 MWL       0.073450
     39 H9           3.6460    -0.4300     2.2150 h1         1 MWL       0.073450
     40 H10          2.6710    -1.7550    -0.3570 h1         1 MWL       0.059700
     41 H11          2.0330    -1.9530     1.2730 h1         1 MWL       0.059700
     42 H12         -0.4120     1.4720    -0.6240 ha         1 MWL       0.150000
     43 H13         -4.4200     0.4900     1.6580 ha         1 MWL       0.138000
     44 H14         -6.7150    -0.2530     2.1110 ha         1 MWL       0.132500
     45 H15         -7.4120    -2.5610     1.5500 ha         1 MWL       0.131000
     46 H16         -5.7790    -4.1240     0.5360 ha         1 MWL       0.132500
     47 H17         -3.4770    -3.3800     0.0800 ha         1 MWL       0.138000
     48 H18         -4.0470    -0.3210    -1.8260 ha         1 MWL       0.148500
     49 H19         -2.3230     2.9440     0.3750 ha         1 MWL       0.148500
     50 H20         -3.9880     4.4150    -0.6910 h4         1 MWL       0.022100
     51 H21         -5.6280     1.2940    -2.7980 h4         1 MWL       0.022100
@<TRIPOS>BOND
     1     1     2 ar  
     2     1     3 ar  
     3     1    31 1   
     4     2     6 ar  
     5     3     4 ar  
     6     3    32 1   
     7     4     5 ar  
     8     4    33 1   
     9     5     6 ar  
    10     6     7 1   
    11     7     8 1   
    12     7    10 1   
    13     8     9 1   
    14     8    34 1   
    15     8    35 1   
    16     9    12 1   
    17     9    36 1   
    18     9    37 1   
    19    10    11 1   
    20    10    38 1   
    21    10    39 1   
    22    11    12 1   
    23    11    40 1   
    24    11    41 1   
    25    12    13 1   
    26    13    14 ar  
    27    13    15 ar  
    28    14    24 2   
    29    14    42 1   
    30    15    16 ar  
    31    16    17 ar  
    32    17    18 1   
    33    17    24 1   
    34    18    19 ar  
    35    18    23 ar  
    36    19    20 ar  
    37    19    43 1   
    38    20    21 ar  
    39    20    44 1   
    40    21    22 ar  
    41    21    45 1   
    42    22    23 ar  
    43    22    46 1   
    44    23    47 1   
    45    24    25 1   
    46    25    26 1   
    47    25    27 2   
    48    26    30 ar  
    49    26    48 1   
    50    27    28 ar  
    51    27    49 1   
    52    28    29 ar  
    53    28    50 1   
    54    29    30 ar  
    55    30    51 1   
@<TRIPOS>SUBSTRUCTURE
     1 MWL         1 TEMP              0 ****  ****    0 ROOT
