@<TRIPOS>MOLECULE
MWM
   16    16     1     0     0
SMALL
No Charge or Current Charge


@<TRIPOS>ATOM
      1 C1           1.7610     1.9930     0.0690 c3         1 MWM      -0.037800
      2 C2           0.7700     0.8330     0.0700 ca         1 MWM      -0.078300
      3 C3           1.2200    -0.5080     0.0990 ca         1 MWM       0.120100
      4 C4           0.2940    -1.5660     0.0990 ca         1 MWM      -0.179000
      5 C5          -1.0860    -1.2950     0.0710 ca         1 MWM      -0.114000
      6 C6          -1.5350     0.0340     0.0420 ca         1 MWM       0.135000
      7 C7          -0.6150     1.0950     0.0410 ca         1 MWM      -0.118000
      8 F1          -2.8600     0.2950     0.0150 f          1 MWM      -0.181000
      9 O1           2.5560    -0.7910     0.1270 oh         1 MWM      -0.532100
     10 H1           2.4220     1.9450    -0.8050 hc         1 MWM       0.046700
     11 H2           1.2530     2.9650     0.0440 hc         1 MWM       0.046700
     12 H3           2.3910     1.9730     0.9660 hc         1 MWM       0.046700
     13 H4           0.6350    -2.5980     0.1220 ha         1 MWM       0.116000
     14 H5          -1.8060    -2.1100     0.0710 ha         1 MWM       0.132000
     15 H6          -0.9830     2.1180     0.0190 ha         1 MWM       0.132000
     16 H7           2.6680    -1.7650     0.1440 ho         1 MWM       0.464000
@<TRIPOS>BOND
     1     1     2 1   
     2     1    10 1   
     3     1    11 1   
     4     1    12 1   
     5     2     3 ar  
     6     2     7 ar  
     7     3     4 ar  
     8     3     9 1   
     9     4     5 ar  
    10     4    13 1   
    11     5     6 ar  
    12     5    14 1   
    13     6     7 ar  
    14     6     8 1   
    15     7    15 1   
    16     9    16 1   
@<TRIPOS>SUBSTRUCTURE
     1 MWM         1 TEMP              0 ****  ****    0 ROOT
