@<TRIPOS>MOLECULE
MWM
   16    16     1     0     0
SMALL
abcg2


@<TRIPOS>ATOM
      1 C1           1.7550     1.9480     0.0680 c3         1 MWM      -0.037800
      2 C2           0.7610     0.8260     0.0690 ca         1 MWM      -0.078300
      3 C3           1.1930    -0.5060     0.0970 ca         1 MWM       0.120100
      4 C4           0.2720    -1.5470     0.0970 ca         1 MWM      -0.179000
      5 C5          -1.0930    -1.2850     0.0700 ca         1 MWM      -0.114000
      6 C6          -1.5070     0.0280     0.0430 ca         1 MWM       0.135000
      7 C7          -0.6060     1.0760     0.0420 ca         1 MWM      -0.118000
      8 F1          -2.8260     0.3040     0.0150 f          1 MWM      -0.181000
      9 O1           2.5270    -0.7200     0.1240 oh         1 MWM      -0.532100
     10 H1           2.4130     1.9020    -0.8010 hc         1 MWM       0.046700
     11 H2           1.2510     2.9130     0.0520 hc         1 MWM       0.046700
     12 H3           2.3920     1.9210     0.9540 hc         1 MWM       0.046700
     13 H4           0.6140    -2.5760     0.1190 ha         1 MWM       0.116000
     14 H5          -1.8090    -2.0960     0.0700 ha         1 MWM       0.132000
     15 H6          -0.9680     2.0970     0.0200 ha         1 MWM       0.132000
     16 H7           2.7140    -1.6650     0.1540 ho         1 MWM       0.464000
@<TRIPOS>BOND
     1     1     2 1   
     2     1    10 1   
     3     1    11 1   
     4     1    12 1   
     5     2     3 ar  
     6     2     7 ar  
     7     3     4 ar  
     8     3     9 1   
     9     4     5 ar  
    10     4    13 1   
    11     5     6 ar  
    12     5    14 1   
    13     6     7 ar  
    14     6     8 1   
    15     7    15 1   
    16     9    16 1   
@<TRIPOS>SUBSTRUCTURE
     1 MWM         1 TEMP              0 ****  ****    0 ROOT
