@<TRIPOS>MOLECULE
MWN
   24    25     1     0     0
SMALL
abcg2


@<TRIPOS>ATOM
      1 C4           6.4020    -4.5440    20.9330 c          1 MWN       0.533000
      2 C5           7.8440    -4.1380    20.5420 c5         1 MWN       0.144600
      3 C6           8.1790    -3.1030    21.5760 ca         1 MWN      -0.165300
      4 C7           9.3460    -2.4130    21.8060 ca         1 MWN       0.021000
      5 C8           9.3550    -1.4720    22.8410 ca         1 MWN      -0.071900
      6 BR          10.9710    -0.5050    23.1870 br         1 MWN      -0.091100
      7 O3           8.7450    -5.2270    20.5580 oh         1 MWN      -0.628000
      8 O2           5.7490    -5.4380    20.4360 o          1 MWN      -0.503000
      9 N            6.0090    -3.7080    21.9440 ns         1 MWN      -0.134000
     10 C3           7.0390    -2.8700    22.3560 ca         1 MWN       0.051000
     11 C9           8.2380    -1.2210    23.6110 ca         1 MWN       0.013000
     12 C2           7.0420    -1.9250    23.3800 ca         1 MWN      -0.192600
     13 C1           5.8250    -1.6990    24.1860 c          1 MWN       0.619700
     14 O1           4.7880    -2.3170    24.0240 o          1 MWN      -0.511000
     15 O            5.9780    -0.7490    25.1090 os         1 MWN      -0.439100
     16 C            4.8330    -0.4590    25.9390 c3         1 MWN       0.155900
     17 H1           7.7950    -3.6820    19.5450 h1         1 MWN       0.073700
     18 H2          10.2290    -2.5940    21.2090 ha         1 MWN       0.145000
     19 H3           8.5180    -5.8170    19.8260 ho         1 MWN       0.464000
     20 H4           5.1110    -3.7340    22.4080 hn         1 MWN       0.207000
     21 H5           8.2700    -0.4860    24.4000 ha         1 MWN       0.149000
     22 H6           5.1590     0.3260    26.6140 h1         1 MWN       0.054033
     23 H7           4.0030    -0.1170    25.3240 h1         1 MWN       0.054033
     24 H8           4.5400    -1.3470    26.4970 h1         1 MWN       0.054033
@<TRIPOS>BOND
     1     1     2 1   
     2     1     8 2   
     3     1     9 1   
     4     2     3 1   
     5     2     7 1   
     6     2    17 1   
     7     3     4 ar  
     8     3    10 ar  
     9     4     5 ar  
    10     4    18 1   
    11     5     6 1   
    12     5    11 ar  
    13     7    19 1   
    14     9    10 1   
    15     9    20 1   
    16    10    12 ar  
    17    11    12 ar  
    18    11    21 1   
    19    12    13 1   
    20    13    14 2   
    21    13    15 1   
    22    15    16 1   
    23    16    22 1   
    24    16    23 1   
    25    16    24 1   
@<TRIPOS>SUBSTRUCTURE
     1 MWN         1 TEMP              0 ****  ****    0 ROOT
