@<TRIPOS>MOLECULE
MWN
   24    25     1     0     0
SMALL
No Charge or Current Charge


@<TRIPOS>ATOM
      1 C4           6.3780    -4.5570    20.8190 c          1 MWN       0.533000
      2 C5           7.8840    -4.1700    20.5020 c5         1 MWN       0.144600
      3 C6           8.1750    -3.1010    21.5490 ca         1 MWN      -0.165300
      4 C7           9.3620    -2.3890    21.7730 ca         1 MWN       0.021000
      5 C8           9.3780    -1.4350    22.8100 ca         1 MWN      -0.071900
      6 Br          10.9770    -0.4420    23.1510 br         1 MWN      -0.091100
      7 O3           8.7730    -5.2940    20.6420 oh         1 MWN      -0.628000
      8 O2           5.6460    -5.3960    20.3060 o          1 MWN      -0.503000
      9 N            6.0570    -3.7200    21.8650 ns         1 MWN      -0.134000
     10 C3           7.0560    -2.8690    22.3250 ca         1 MWN       0.051000
     11 C9           8.2290    -1.2020    23.6020 ca         1 MWN       0.013000
     12 C2           7.0310    -1.9260    23.3700 ca         1 MWN      -0.192600
     13 C1           5.7940    -1.6960    24.2020 c          1 MWN       0.619700
     14 O1           4.7470    -2.3060    24.0270 o          1 MWN      -0.511000
     15 O            5.9560    -0.7400    25.1720 os         1 MWN      -0.439100
     16 C            4.8350    -0.4400    26.0250 c3         1 MWN       0.155900
     17 H1           7.9250    -3.7440    19.4890 h1         1 MWN       0.073700
     18 H2          10.2450    -2.5700    21.1630 ha         1 MWN       0.145000
     19 H3           8.4850    -5.9750    19.9920 ho         1 MWN       0.464000
     20 H4           5.1440    -3.7420    22.3020 hn         1 MWN       0.207000
     21 H5           8.2830    -0.4570    24.3930 ha         1 MWN       0.149000
     22 H6           5.1050     0.3380    26.7500 h1         1 MWN       0.054033
     23 H7           3.9820    -0.0770    25.4390 h1         1 MWN       0.054033
     24 H8           4.5200    -1.3300    26.5850 h1         1 MWN       0.054033
@<TRIPOS>BOND
     1     1     2 1   
     2     1     8 2   
     3     1     9 1   
     4     2     3 1   
     5     2     7 1   
     6     2    17 1   
     7     3     4 ar  
     8     3    10 ar  
     9     4     5 ar  
    10     4    18 1   
    11     5     6 1   
    12     5    11 ar  
    13     7    19 1   
    14     9    10 1   
    15     9    20 1   
    16    10    12 ar  
    17    11    12 ar  
    18    11    21 1   
    19    12    13 1   
    20    13    14 2   
    21    13    15 1   
    22    15    16 1   
    23    16    22 1   
    24    16    23 1   
    25    16    24 1   
@<TRIPOS>SUBSTRUCTURE
     1 MWN         1 TEMP              0 ****  ****    0 ROOT
