@<TRIPOS>MOLECULE
MWO
   47    49     1     0     0
SMALL
No Charge or Current Charge


@<TRIPOS>ATOM
      1 N1          52.3320   106.7630    72.9370 n2         1 MWO      -0.259700
      2 C1          51.9430   106.5560    74.1400 c2         1 MWO       0.294300
      3 N4          51.5950   102.2400    74.7230 n7         1 MWO      -0.849400
      4 N3          54.3420   113.4580    71.9300 n3         1 MWO      -0.679600
      5 C2          52.1940   108.8760    73.9640 c5         1 MWO       0.122300
      6 N2          53.2040   111.2320    73.5920 n3         1 MWO      -0.727600
      7 C3          51.9740   107.7650    75.0230 c5         1 MWO      -0.171700
      8 C4          53.2490   109.9530    74.3560 c3         1 MWO       0.177800
      9 C15         52.4990   102.9770    75.6400 c6         1 MWO       0.148300
     10 C14         52.8650   104.3650    75.0620 c6         1 MWO      -0.108400
     11 C7          54.0790   113.6160    73.3920 c6         1 MWO       0.168300
     12 C6          53.4090   112.4400    71.3560 c6         1 MWO       0.168300
     13 C5          53.4570   111.0780    72.1230 c6         1 MWO       0.164800
     14 C8          54.1390   112.2540    74.1580 c6         1 MWO       0.164800
     15 C13         51.5910   105.1940    74.7380 c6         1 MWO      -0.079000
     16 C12         50.6470   104.3660    73.8200 c6         1 MWO      -0.108400
     17 C11         50.3420   102.9800    74.4380 c6         1 MWO       0.148300
     18 C10         54.6820   114.7720    69.6640 c          1 MWO       0.719000
     19 O1          52.6010   108.1430    72.7690 os         1 MWO      -0.273000
     20 O2          55.8640   114.8190    69.3440 o          1 MWO      -0.728500
     21 O3          53.7700   114.7480    68.8460 o          1 MWO      -0.728500
     22 H1          52.0900   102.0940    73.8350 hn         1 MWO       0.404000
     23 H4          51.2400   109.3770    73.7480 h1         1 MWO       0.078700
     24 H6          52.7940   107.7000    75.7470 hc         1 MWO       0.065200
     25 H7          51.0370   107.9000    75.5750 hc         1 MWO       0.065200
     26 H8          54.2480   109.5020    74.2810 h1         1 MWO       0.029700
     27 H9          53.0880   110.1820    75.4180 h1         1 MWO       0.029700
     28 H10         53.4160   102.3920    75.8060 h1         1 MWO       0.049450
     29 H11         52.0070   103.1040    76.6170 h1         1 MWO       0.049450
     30 H12         53.4710   104.2370    74.1540 hc         1 MWO       0.053950
     31 H13         53.4930   104.9080    75.7810 hc         1 MWO       0.053950
     32 H14         54.8150   114.3010    73.8380 h1         1 MWO       0.032450
     33 H15         53.0870   114.0630    73.5510 h1         1 MWO       0.032450
     34 H16         53.6530   112.2500    70.3000 h1         1 MWO       0.032450
     35 H17         52.3770   112.8190    71.3830 h1         1 MWO       0.032450
     36 H18         52.7060   110.4160    71.6700 h1         1 MWO       0.030700
     37 H19         54.4410   110.6150    71.9570 h1         1 MWO       0.030700
     38 H20         53.9020   112.4390    75.2160 h1         1 MWO       0.030700
     39 H21         55.1720   111.8790    74.1230 h1         1 MWO       0.030700
     40 H22         51.0570   105.3730    75.6810 hc         1 MWO       0.055700
     41 H23         49.7070   104.9110    73.6590 hc         1 MWO       0.053950
     42 H24         51.1020   104.2290    72.8290 hc         1 MWO       0.053950
     43 H25         49.7700   103.1100    75.3690 h1         1 MWO       0.049450
     44 H26         49.7170   102.3960    73.7450 h1         1 MWO       0.049450
     45 H27         55.0110   115.4610    71.6840 h1         1 MWO       0.010700
     46 H28         53.3170   115.2110    71.2900 h1         1 MWO       0.010700
     47 C9          54.3170   114.7650    71.1930 c3         1 MWO       0.021800
@<TRIPOS>BOND
     1     1     2 2   
     2     1    19 1   
     3     2     7 1   
     4     2    15 1   
     5     3     9 1   
     6     3    17 1   
     7     3    22 1   
     8     4    11 1   
     9     4    12 1   
    10     4    47 1   
    11     5     7 1   
    12     5     8 1   
    13     5    19 1   
    14     5    23 1   
    15     6     8 1   
    16     6    13 1   
    17     6    14 1   
    18     7    24 1   
    19     7    25 1   
    20     8    26 1   
    21     8    27 1   
    22     9    10 1   
    23     9    28 1   
    24     9    29 1   
    25    10    15 1   
    26    10    30 1   
    27    10    31 1   
    28    11    14 1   
    29    11    32 1   
    30    11    33 1   
    31    12    13 1   
    32    12    34 1   
    33    12    35 1   
    34    13    36 1   
    35    13    37 1   
    36    14    38 1   
    37    14    39 1   
    38    15    16 1   
    39    15    40 1   
    40    16    17 1   
    41    16    41 1   
    42    16    42 1   
    43    17    43 1   
    44    17    44 1   
    45    18    20 1   
    46    18    21 1   
    47    18    47 1   
    48    45    47 1   
    49    46    47 1   
@<TRIPOS>SUBSTRUCTURE
     1 MWO         1 TEMP              0 ****  ****    0 ROOT
