@<TRIPOS>MOLECULE
MWO
   47    49     1     0     0
SMALL
abcg2


@<TRIPOS>ATOM
      1 N1          53.0590   106.7270    73.1430 n2         1 MWO      -0.259700
      2 C1          52.3650   106.5380    74.1880 c2         1 MWO       0.294300
      3 N4          51.1990   102.3930    74.8010 n7         1 MWO      -0.849400
      4 N3          54.1930   113.4290    72.0510 n3         1 MWO      -0.679600
      5 C2          52.2720   108.8220    73.7300 c5         1 MWO       0.122300
      6 N2          53.0310   111.1780    73.3990 n3         1 MWO      -0.727600
      7 C3          51.8680   107.8110    74.7990 c5         1 MWO      -0.171700
      8 C4          52.9770   110.0440    74.2960 c3         1 MWO       0.177800
      9 C15         52.6140   102.7300    74.7750 c6         1 MWO       0.148300
     10 C14         52.9260   104.0680    74.1080 c6         1 MWO      -0.108400
     11 C7          53.3000   113.5960    73.1790 c6         1 MWO       0.168300
     12 C6          53.8670   112.2050    71.3490 c6         1 MWO       0.168300
     13 C5          53.9290   111.0030    72.2720 c6         1 MWO       0.164800
     14 C8          53.3700   112.3980    74.1080 c6         1 MWO       0.164800
     15 C13         52.1250   105.1860    74.7710 c6         1 MWO      -0.079000
     16 C12         50.6310   104.8300    74.7520 c6         1 MWO      -0.108400
     17 C11         50.4060   103.4590    75.3880 c6         1 MWO       0.148300
     18 C10         55.2830   114.6440    70.1090 c          1 MWO       0.719000
     19 O1          53.1330   108.0670    72.8480 os         1 MWO      -0.273000
     20 O2          56.3250   113.9940    70.3130 o          1 MWO      -0.728500
     21 O3          55.0450   115.4010    69.1460 o          1 MWO      -0.728500
     22 H1          50.8830   102.2330    73.8510 hn         1 MWO       0.404000
     23 H4          51.3990   109.1460    73.1530 h1         1 MWO       0.078700
     24 H6          52.3630   107.9810    75.7620 hc         1 MWO       0.065200
     25 H7          50.7950   107.8040    74.9880 hc         1 MWO       0.065200
     26 H8          53.9700   109.7420    74.6720 h1         1 MWO       0.029700
     27 H9          52.4000   110.3550    75.1720 h1         1 MWO       0.029700
     28 H10         53.1560   101.9260    74.2720 h1         1 MWO       0.049450
     29 H11         52.9760   102.7510    75.8090 h1         1 MWO       0.049450
     30 H12         52.6750   104.0120    73.0440 hc         1 MWO       0.053950
     31 H13         53.9980   104.2730    74.1710 hc         1 MWO       0.053950
     32 H14         53.5870   114.4920    73.7350 h1         1 MWO       0.032450
     33 H15         52.2520   113.7370    72.8580 h1         1 MWO       0.032450
     34 H16         54.5740   112.0560    70.5330 h1         1 MWO       0.032450
     35 H17         52.8570   112.2560    70.9020 h1         1 MWO       0.032450
     36 H18         53.6440   110.1210    71.7010 h1         1 MWO       0.030700
     37 H19         54.9700   110.8510    72.6070 h1         1 MWO       0.030700
     38 H20         52.6630   112.5430    74.9280 h1         1 MWO       0.030700
     39 H21         54.3790   112.3450    74.5520 h1         1 MWO       0.030700
     40 H22         52.4300   105.2480    75.8260 hc         1 MWO       0.055700
     41 H23         50.0440   105.5820    75.2860 hc         1 MWO       0.053950
     42 H24         50.2760   104.8200    73.7170 hc         1 MWO       0.053950
     43 H25         50.6510   103.5190    76.4540 h1         1 MWO       0.049450
     44 H26         49.3500   103.1880    75.3260 h1         1 MWO       0.049450
     45 H27         54.2570   115.4770    71.7900 h1         1 MWO       0.010700
     46 H28         53.1850   114.6700    70.6630 h1         1 MWO       0.010700
     47 C9          54.1600   114.5760    71.1710 c3         1 MWO       0.021800
@<TRIPOS>BOND
     1     1     2 2   
     2     1    19 1   
     3     2     7 1   
     4     2    15 1   
     5     3     9 1   
     6     3    17 1   
     7     3    22 1   
     8     4    11 1   
     9     4    12 1   
    10     4    47 1   
    11     5     7 1   
    12     5     8 1   
    13     5    19 1   
    14     5    23 1   
    15     6     8 1   
    16     6    13 1   
    17     6    14 1   
    18     7    24 1   
    19     7    25 1   
    20     8    26 1   
    21     8    27 1   
    22     9    10 1   
    23     9    28 1   
    24     9    29 1   
    25    10    15 1   
    26    10    30 1   
    27    10    31 1   
    28    11    14 1   
    29    11    32 1   
    30    11    33 1   
    31    12    13 1   
    32    12    34 1   
    33    12    35 1   
    34    13    36 1   
    35    13    37 1   
    36    14    38 1   
    37    14    39 1   
    38    15    16 1   
    39    15    40 1   
    40    16    17 1   
    41    16    41 1   
    42    16    42 1   
    43    17    43 1   
    44    17    44 1   
    45    18    20 1   
    46    18    21 1   
    47    18    47 1   
    48    45    47 1   
    49    46    47 1   
@<TRIPOS>SUBSTRUCTURE
     1 MWO         1 TEMP              0 ****  ****    0 ROOT
