@<TRIPOS>MOLECULE
MWP
   19    20     1     0     0
SMALL
No Charge or Current Charge


@<TRIPOS>ATOM
      1 O11          2.0320     1.2050    -1.3070 o          1 MWP      -0.513000
      2 S9           1.6710     0.5740    -0.0310 sy         1 MWP       0.981600
      3 O10          2.0230     1.1950     1.2530 o          1 MWP      -0.513000
      4 C8           2.2030    -1.1240    -0.0360 ce         1 MWP      -0.375100
      5 C7           1.1030    -1.9320    -0.0430 cf         1 MWP      -0.013200
      6 C2          -0.2050    -1.2570    -0.0450 ca         1 MWP      -0.116800
      7 C3          -0.0620     0.1320    -0.0380 ca         1 MWP      -0.176500
      8 C4          -1.1770     0.9860    -0.0390 ca         1 MWP      -0.075000
      9 C5          -2.4630     0.4070    -0.0460 ca         1 MWP       0.329000
     10 N12         -3.5820     1.2010    -0.0460 nv         1 MWP      -1.095000
     11 C6          -2.6090    -0.9970    -0.0530 ca         1 MWP      -0.169000
     12 C1          -1.4790    -1.8430    -0.0520 ca         1 MWP      -0.019000
     13 H1           3.2660    -1.3630    -0.0330 h4         1 MWP       0.241000
     14 H2           1.1600    -3.0240    -0.0470 ha         1 MWP       0.199000
     15 H3          -1.0500     2.0650    -0.0350 ha         1 MWP       0.131000
     16 H4          -3.4930     2.2020     0.1260 hn         1 MWP       0.473500
     17 H5          -4.4980     0.7840     0.1120 hn         1 MWP       0.473500
     18 H6          -3.6020    -1.4380    -0.0590 ha         1 MWP       0.118000
     19 H7          -1.5940    -2.9250    -0.0570 ha         1 MWP       0.120000
@<TRIPOS>BOND
     1     1     2 2   
     2     2     3 2   
     3     2     4 1   
     4     2     7 1   
     5     4     5 2   
     6     4    13 1   
     7     5     6 1   
     8     5    14 1   
     9     6     7 ar  
    10     6    12 ar  
    11     7     8 ar  
    12     8     9 ar  
    13     8    15 1   
    14     9    10 1   
    15     9    11 ar  
    16    10    16 1   
    17    10    17 1   
    18    11    12 ar  
    19    11    18 1   
    20    12    19 1   
@<TRIPOS>SUBSTRUCTURE
     1 MWP         1 TEMP              0 ****  ****    0 ROOT
