@<TRIPOS>MOLECULE
MWP
   19    20     1     0     0
SMALL
abcg2


@<TRIPOS>ATOM
      1 O11          1.9870     1.2380    -1.2710 o          1 MWP      -0.513000
      2 S9           1.6270     0.5620    -0.0290 sy         1 MWP       0.981600
      3 O10          1.9790     1.2240     1.2240 o          1 MWP      -0.513000
      4 C8           2.1580    -1.1240    -0.0360 ce         1 MWP      -0.375100
      5 C7           1.1020    -1.9400    -0.0440 cf         1 MWP      -0.013200
      6 C2          -0.1980    -1.2740    -0.0450 ca         1 MWP      -0.116800
      7 C3          -0.0930     0.1120    -0.0370 ca         1 MWP      -0.176500
      8 C4          -1.1620     0.9670    -0.0390 ca         1 MWP      -0.075000
      9 C5          -2.4550     0.4020    -0.0500 ca         1 MWP       0.329000
     10 N12         -3.5510     1.2040    -0.1020 nv         1 MWP      -1.095000
     11 C6          -2.5800    -0.9980    -0.0510 ca         1 MWP      -0.169000
     12 C1          -1.4700    -1.8270    -0.0510 ca         1 MWP      -0.019000
     13 H1           3.2090    -1.3650    -0.0340 h4         1 MWP       0.241000
     14 H2           1.1890    -3.0190    -0.0500 ha         1 MWP       0.199000
     15 H3          -1.0320     2.0420    -0.0340 ha         1 MWP       0.131000
     16 H4          -3.4470     2.1740     0.1440 hn         1 MWP       0.473500
     17 H5          -4.4450     0.8090     0.1380 hn         1 MWP       0.473500
     18 H6          -3.5700    -1.4370    -0.0560 ha         1 MWP       0.118000
     19 H7          -1.6030    -2.9020    -0.0530 ha         1 MWP       0.120000
@<TRIPOS>BOND
     1     1     2 2   
     2     2     3 2   
     3     2     4 1   
     4     2     7 1   
     5     4     5 2   
     6     4    13 1   
     7     5     6 1   
     8     5    14 1   
     9     6     7 ar  
    10     6    12 ar  
    11     7     8 ar  
    12     8     9 ar  
    13     8    15 1   
    14     9    10 1   
    15     9    11 ar  
    16    10    16 1   
    17    10    17 1   
    18    11    12 ar  
    19    11    18 1   
    20    12    19 1   
@<TRIPOS>SUBSTRUCTURE
     1 MWP         1 TEMP              0 ****  ****    0 ROOT
