@<TRIPOS>MOLECULE
MWQ
   17    17     1     0     0
SMALL
No Charge or Current Charge


@<TRIPOS>ATOM
      1 OAA        -11.9280   -50.5270    -9.0960 o          1 MWQ      -0.736500
      2 CAI        -12.3660   -50.7380    -7.9750 c          1 MWQ       0.718000
      3 OAB        -12.7110   -49.8540    -7.2060 o          1 MWQ      -0.736500
      4 CAC        -12.4220   -52.1920    -7.4800 c3         1 MWQ      -0.208400
      5 CAD        -11.0880   -52.5640    -6.7930 c3         1 MWQ      -0.001100
      6 CAJ        -11.0760   -53.9730    -6.2600 cc         1 MWQ      -0.150300
      7 CAF        -11.0760   -54.4210    -4.9620 cd         1 MWQ       0.188900
      8 NAH        -11.0540   -55.8010    -4.9260 nd         1 MWQ      -0.691000
      9 CAE        -11.0400   -56.1980    -6.1900 cc         1 MWQ       0.350400
     10 NAG        -11.0500   -55.1140    -7.0330 na         1 MWQ      -0.301500
     11 HAC        -13.1970   -52.3100    -6.7130 hc         1 MWQ       0.018700
     12 HAB        -12.5300   -52.8830    -8.3260 hc         1 MWQ       0.018700
     13 HAD        -10.2640   -52.4340    -7.5050 hc         1 MWQ       0.058700
     14 HAH        -10.8990   -51.8610    -5.9710 hc         1 MWQ       0.058700
     15 HAF        -11.0900   -53.8270    -4.0560 h4         1 MWQ       0.029100
     16 HAE        -11.0220   -57.2200    -6.5500 h5         1 MWQ       0.035100
     17 H101       -11.0430   -55.1630    -8.0440 hn         1 MWQ       0.349000
@<TRIPOS>BOND
     1     1     2 1   
     2     2     3 1   
     3     2     4 1   
     4     4     5 1   
     5     4    11 1   
     6     4    12 1   
     7     5     6 1   
     8     5    13 1   
     9     5    14 1   
    10     6     7 2   
    11     6    10 1   
    12     7     8 1   
    13     7    15 1   
    14     8     9 2   
    15     9    10 1   
    16     9    16 1   
    17    10    17 1   
@<TRIPOS>SUBSTRUCTURE
     1 MWQ         1 TEMP              0 ****  ****    0 ROOT
