@<TRIPOS>MOLECULE
MWQ
   17    17     1     0     0
SMALL
bcc


@<TRIPOS>ATOM
      1 OAA        -13.0350   -50.5600    -9.0910 o          1 MWQ      -0.841800
      2 CAI        -12.3340   -50.7660    -8.0800 c          1 MWQ       0.928600
      3 OAB        -11.6880   -49.9160    -7.4350 o          1 MWQ      -0.841800
      4 CAC        -12.2920   -52.2210    -7.5680 c3         1 MWQ      -0.208400
      5 CAD        -11.1090   -52.5410    -6.6560 c3         1 MWQ      -0.001100
      6 CAJ        -11.0980   -53.9460    -6.1660 cc         1 MWQ      -0.164900
      7 CAF        -11.2150   -54.4800    -4.9110 cd         1 MWQ       0.254200
      8 NAH        -11.1590   -55.8480    -4.9530 nd         1 MWQ      -0.691000
      9 CAE        -11.0110   -56.1450    -6.2170 cc         1 MWQ       0.350400
     10 NAG        -10.9690   -55.0350    -6.9840 na         1 MWQ      -0.301900
     11 HAC        -13.2240   -52.4220    -7.0280 hc         1 MWQ       0.018700
     12 HAB        -12.3040   -52.8980    -8.4270 hc         1 MWQ       0.018700
     13 HAD        -10.1740   -52.3260    -7.1830 hc         1 MWQ       0.058700
     14 HAH        -11.1240   -51.8820    -5.7870 hc         1 MWQ       0.058700
     15 HAF        -11.3350   -53.9410    -3.9830 h4         1 MWQ       0.029100
     16 HAE        -10.9270   -57.1380    -6.6330 h5         1 MWQ       0.035100
     17 H101       -10.8580   -55.0150    -7.9860 hn         1 MWQ       0.298700
@<TRIPOS>BOND
     1     1     2 1   
     2     2     3 1   
     3     2     4 1   
     4     4     5 1   
     5     4    11 1   
     6     4    12 1   
     7     5     6 1   
     8     5    13 1   
     9     5    14 1   
    10     6     7 2   
    11     6    10 1   
    12     7     8 1   
    13     7    15 1   
    14     8     9 2   
    15     9    10 1   
    16     9    16 1   
    17    10    17 1   
@<TRIPOS>SUBSTRUCTURE
     1 MWQ         1 TEMP              0 ****  ****    0 ROOT
