@<TRIPOS>MOLECULE
MWR
   37    39     1     0     0
SMALL
abcg2


@<TRIPOS>ATOM
      1 C1           5.9540     8.0030    20.2840 ca         1 MWR      -0.065300
      2 C2           4.9710     7.0240    20.2670 ca         1 MWR      -0.158000
      3 C3           3.9170     7.0610    21.1680 ca         1 MWR       0.138100
      4 C4           3.8710     8.0710    22.1240 ca         1 MWR       0.096000
      5 C5           4.8650     9.0340    22.1660 ca         1 MWR      -0.076000
      6 C6           5.8960     9.0090    21.2400 ca         1 MWR      -0.107000
      7 C7           7.0870     7.9580    19.2900 c3         1 MWR       0.139300
      8 O8           2.9310     6.1310    21.1800 os         1 MWR      -0.238200
      9 CL9          2.5610     8.1160    23.2480 cl         1 MWR      -0.176000
     10 C10          2.6000     5.5010    20.0050 ca         1 MWR       0.101100
     11 C11          2.5720     4.1160    19.9970 ca         1 MWR      -0.127500
     12 C12          2.2020     3.4520    18.8340 ca         1 MWR      -0.095000
     13 C13          1.8780     4.1650    17.6890 ca         1 MWR      -0.121000
     14 C14          1.9100     5.5550    17.7130 ca         1 MWR      -0.095000
     15 C15          2.2640     6.2310    18.8710 ca         1 MWR      -0.127500
     16 N16          6.6590     7.4500    17.9960 n          1 MWR      -0.283000
     17 C17          5.8010     8.2590    17.2390 c          1 MWR       0.570200
     18 C18          5.3230     7.6750    16.0280 cc         1 MWR      -0.387200
     19 C19          5.6910     6.4160    15.6360 cd         1 MWR       0.222100
     20 C20          6.5750     5.6550    16.4450 cd         1 MWR      -0.374000
     21 C21          7.0190     6.2080    17.5980 cc         1 MWR       0.002600
     22 O22          5.5140     9.3810    17.6470 o          1 MWR      -0.551000
     23 O23          5.2020     5.9300    14.4950 oh         1 MWR      -0.519100
     24 H24          5.0090     6.2250    19.5370 ha         1 MWR       0.128000
     25 H25          4.8190     9.8200    22.9080 ha         1 MWR       0.132000
     26 H26          6.6500     9.7860    21.2640 ha         1 MWR       0.123000
     27 H28          7.5220     8.9490    19.1690 h1         1 MWR       0.069700
     28 H27          7.8810     7.3050    19.6560 h1         1 MWR       0.069700
     29 H29          2.8370     3.5640    20.8900 ha         1 MWR       0.132500
     30 H30          2.1780     2.3700    18.8260 ha         1 MWR       0.118000
     31 H31          1.5990     3.6440    16.7840 ha         1 MWR       0.115000
     32 H32          1.6530     6.1200    16.8270 ha         1 MWR       0.118000
     33 H33          2.2830     7.3140    18.8870 ha         1 MWR       0.132500
     34 H34          4.6510     8.2660    15.4210 ha         1 MWR       0.222000
     35 H35          6.8930     4.6590    16.1670 ha         1 MWR       0.200000
     36 H36          7.6860     5.6720    18.2580 h4         1 MWR       0.199000
     37 H37          5.5340     5.0410    14.3210 ho         1 MWR       0.472000
@<TRIPOS>BOND
     1     1     2 ar  
     2     1     6 ar  
     3     1     7 1   
     4     2     3 ar  
     5     2    24 1   
     6     3     4 ar  
     7     3     8 1   
     8     4     5 ar  
     9     4     9 1   
    10     5     6 ar  
    11     5    25 1   
    12     6    26 1   
    13     7    16 1   
    14     7    27 1   
    15     7    28 1   
    16     8    10 1   
    17    10    11 ar  
    18    10    15 ar  
    19    11    12 ar  
    20    11    29 1   
    21    12    13 ar  
    22    12    30 1   
    23    13    14 ar  
    24    13    31 1   
    25    14    15 ar  
    26    14    32 1   
    27    15    33 1   
    28    16    17 1   
    29    16    21 1   
    30    17    18 1   
    31    17    22 2   
    32    18    19 2   
    33    18    34 1   
    34    19    20 1   
    35    19    23 1   
    36    20    21 2   
    37    20    35 1   
    38    21    36 1   
    39    23    37 1   
@<TRIPOS>SUBSTRUCTURE
     1 MWR         1 TEMP              0 ****  ****    0 ROOT
