@<TRIPOS>MOLECULE
MWR
   37    39     1     0     0
SMALL
No Charge or Current Charge


@<TRIPOS>ATOM
      1 C1           5.8790     7.7650    20.2030 ca         1 MWR      -0.065300
      2 C2           4.9350     6.7440    20.4240 ca         1 MWR      -0.158000
      3 C3           3.7800     6.9950    21.1910 ca         1 MWR       0.138100
      4 C4           3.5830     8.2670    21.7670 ca         1 MWR       0.096000
      5 C5           4.5270     9.2850    21.5530 ca         1 MWR      -0.076000
      6 C6           5.6680     9.0370    20.7690 ca         1 MWR      -0.107000
      7 C7           7.1070     7.4960    19.3410 c3         1 MWR       0.139300
      8 O8           2.8510     5.9960    21.4020 os         1 MWR      -0.238200
      9 Cl9          2.1550     8.6050    22.7450 cl         1 MWR      -0.176000
     10 C10          2.4720     5.1100    20.4180 ca         1 MWR       0.101100
     11 C11          2.1700     3.7860    20.7780 ca         1 MWR      -0.127500
     12 C12          1.7730     2.8610    19.7960 ca         1 MWR      -0.095000
     13 C13          1.6720     3.2630    18.4520 ca         1 MWR      -0.121000
     14 C14          1.9620     4.5900    18.0900 ca         1 MWR      -0.095000
     15 C15          2.3570     5.5160    19.0720 ca         1 MWR      -0.127500
     16 N16          6.8110     7.5290    17.8900 n          1 MWR      -0.283000
     17 C17          6.8700     8.7690    17.2210 c          1 MWR       0.570200
     18 C18          6.5410     8.7170    15.7980 cc         1 MWR      -0.387200
     19 C19          6.1950     7.5740    15.1380 cd         1 MWR       0.222100
     20 C20          6.1510     6.3520    15.8760 cd         1 MWR      -0.374000
     21 C21          6.4570     6.3580    17.2210 cc         1 MWR       0.002600
     22 O22          7.1750     9.8160    17.7740 o          1 MWR      -0.551000
     23 O23          5.9000     7.5790    13.8320 oh         1 MWR      -0.519100
     24 H24          5.0950     5.7580    19.9970 ha         1 MWR       0.128000
     25 H25          4.3710    10.2680    21.9900 ha         1 MWR       0.132000
     26 H26          6.3880     9.8360    20.6020 ha         1 MWR       0.123000
     27 H28          7.8920     8.2270    19.5760 h1         1 MWR       0.069700
     28 H27          7.5170     6.5120    19.6020 h1         1 MWR       0.069700
     29 H29          2.2480     3.4770    21.8170 ha         1 MWR       0.132500
     30 H30          1.5440     1.8340    20.0750 ha         1 MWR       0.118000
     31 H31          1.3650     2.5470    17.6920 ha         1 MWR       0.115000
     32 H32          1.8770     4.9020    17.0510 ha         1 MWR       0.118000
     33 H33          2.5700     6.5430    18.7860 ha         1 MWR       0.132500
     34 H34          6.5870     9.6670    15.2820 ha         1 MWR       0.222000
     35 H35          5.8790     5.4170    15.3930 ha         1 MWR       0.200000
     36 H36          6.4490     5.4830    17.8660 h4         1 MWR       0.199000
     37 H37          5.6880     6.6540    13.5910 ho         1 MWR       0.472000
@<TRIPOS>BOND
     1     1     2 ar  
     2     1     6 ar  
     3     1     7 1   
     4     2     3 ar  
     5     2    24 1   
     6     3     4 ar  
     7     3     8 1   
     8     4     5 ar  
     9     4     9 1   
    10     5     6 ar  
    11     5    25 1   
    12     6    26 1   
    13     7    16 1   
    14     7    27 1   
    15     7    28 1   
    16     8    10 1   
    17    10    11 ar  
    18    10    15 ar  
    19    11    12 ar  
    20    11    29 1   
    21    12    13 ar  
    22    12    30 1   
    23    13    14 ar  
    24    13    31 1   
    25    14    15 ar  
    26    14    32 1   
    27    15    33 1   
    28    16    17 1   
    29    16    21 1   
    30    17    18 1   
    31    17    22 2   
    32    18    19 2   
    33    18    34 1   
    34    19    20 1   
    35    19    23 1   
    36    20    21 2   
    37    20    35 1   
    38    21    36 1   
    39    23    37 1   
@<TRIPOS>SUBSTRUCTURE
     1 MWR         1 TEMP              0 ****  ****    0 ROOT
