@<TRIPOS>MOLECULE
MWS
   51    53     1     0     0
SMALL
No Charge or Current Charge


@<TRIPOS>ATOM
      1 C11         -0.7040    -2.7820    -0.2280 c2         1 MWS      -0.235200
      2 C12          0.0940    -1.6400     0.3690 c3         1 MWS       0.204800
      3 C14          1.8900    -0.1670    -0.3370 ca         1 MWS       0.221100
      4 C15          3.2940    -0.3530    -0.2820 ca         1 MWS      -0.199800
      5 C16          3.8770    -1.6730    -0.5070 cc         1 MWS      -0.052200
      6 C17          5.2510    -1.7550    -0.4230 cd         1 MWS      -0.335200
      7 C18          6.1230    -0.6050    -0.1270 c          1 MWS       0.674300
      8 C01         -2.7280    -4.1770    -0.7470 c3         1 MWS      -0.060900
      9 C02         -2.0200    -3.0170    -0.0700 c2         1 MWS      -0.078400
     10 C03         -2.9490    -2.1590     0.7780 c3         1 MWS      -0.046200
     11 C04         -3.6040    -1.0230    -0.0450 c3         1 MWS      -0.103400
     12 C05         -4.3900     0.0070     0.8140 c3         1 MWS       0.177300
     13 C07         -4.8720     1.2930     0.0320 c3         1 MWS       0.154000
     14 C08         -5.8290     0.9650    -1.1430 c3         1 MWS      -0.120100
     15 C09         -5.5420     2.3050     0.9940 c3         1 MWS      -0.120100
     16 C21          4.1350     0.7540     0.0050 ca         1 MWS       0.199100
     17 C22          3.6000     2.0360     0.2260 ca         1 MWS      -0.146000
     18 C23          2.2160     2.1790     0.1470 ca         1 MWS       0.116100
     19 C24          1.3760     1.1260    -0.1290 ca         1 MWS      -0.171800
     20 C25          0.0240     1.6610    -0.1830 cc         1 MWS      -0.209200
     21 C26          0.1600     3.0150     0.0900 cd         1 MWS      -0.076900
     22 O06         -5.5030    -0.6680     1.4320 oh         1 MWS      -0.654000
     23 O10         -3.7320     1.9580    -0.5270 oh         1 MWS      -0.670000
     24 O13          1.0640    -1.2330    -0.6050 os         1 MWS      -0.363100
     25 O19          7.3390    -0.7110    -0.0600 o          1 MWS      -0.482000
     26 O20          5.4950     0.5920     0.0700 os         1 MWS      -0.341200
     27 O27          1.4850     3.3180     0.2920 os         1 MWS      -0.171200
     28 H1          -0.1040    -3.4430    -0.8530 ha         1 MWS       0.179000
     29 H2          -0.5670    -0.8080     0.6320 h1         1 MWS       0.042200
     30 H3           0.5930    -1.9770     1.2880 h1         1 MWS       0.042200
     31 H4           3.2760    -2.5530    -0.7300 ha         1 MWS       0.201000
     32 H5           5.7790    -2.6890    -0.5740 ha         1 MWS       0.214000
     33 H6          -3.5310    -3.8230    -1.4040 hc         1 MWS       0.043367
     34 H7          -2.0400    -4.7700    -1.3610 hc         1 MWS       0.043367
     35 H8          -3.1730    -4.8540    -0.0080 hc         1 MWS       0.043367
     36 H9          -3.7240    -2.7770     1.2480 hc         1 MWS       0.052200
     37 H10         -2.3920    -1.7100     1.6090 hc         1 MWS       0.052200
     38 H11         -2.8120    -0.5010    -0.5930 hc         1 MWS       0.056200
     39 H12         -4.2640    -1.4650    -0.8000 hc         1 MWS       0.056200
     40 H13         -3.7050     0.3600     1.5990 h1         1 MWS       0.079700
     41 H14         -6.7300     0.4510    -0.7880 hc         1 MWS       0.043700
     42 H15         -6.1510     1.8810    -1.6530 hc         1 MWS       0.043700
     43 H16         -5.3420     0.3260    -1.8900 hc         1 MWS       0.043700
     44 H17         -6.4600     1.8890     1.4260 hc         1 MWS       0.043700
     45 H18         -4.8680     2.5660     1.8180 hc         1 MWS       0.043700
     46 H19         -5.8110     3.2310     0.4700 hc         1 MWS       0.043700
     47 H20          4.2420     2.8850     0.4400 ha         1 MWS       0.158000
     48 H21         -0.9070     1.1480    -0.4180 ha         1 MWS       0.236000
     49 H22         -0.5700     3.8200     0.1470 h4         1 MWS       0.242000
     50 H23         -6.0550    -1.0300     0.7080 ho         1 MWS       0.439000
     51 H24         -4.0680     2.7350    -1.0230 ho         1 MWS       0.447000
@<TRIPOS>BOND
     1     1     2 1   
     2     1     9 2   
     3     1    28 1   
     4     2    24 1   
     5     2    29 1   
     6     2    30 1   
     7     3     4 ar  
     8     3    19 ar  
     9     3    24 1   
    10     4     5 1   
    11     4    16 ar  
    12     5     6 2   
    13     5    31 1   
    14     6     7 1   
    15     6    32 1   
    16     7    25 2   
    17     7    26 1   
    18     8     9 1   
    19     8    33 1   
    20     8    34 1   
    21     8    35 1   
    22     9    10 1   
    23    10    11 1   
    24    10    36 1   
    25    10    37 1   
    26    11    12 1   
    27    11    38 1   
    28    11    39 1   
    29    12    13 1   
    30    12    22 1   
    31    12    40 1   
    32    13    14 1   
    33    13    15 1   
    34    13    23 1   
    35    14    41 1   
    36    14    42 1   
    37    14    43 1   
    38    15    44 1   
    39    15    45 1   
    40    15    46 1   
    41    16    17 ar  
    42    16    26 1   
    43    17    18 ar  
    44    17    47 1   
    45    18    19 ar  
    46    18    27 1   
    47    19    20 1   
    48    20    21 2   
    49    20    48 1   
    50    21    27 1   
    51    21    49 1   
    52    22    50 1   
    53    23    51 1   
@<TRIPOS>SUBSTRUCTURE
     1 MWS         1 TEMP              0 ****  ****    0 ROOT
