@<TRIPOS>MOLECULE
MWS
   51    53     1     0     0
SMALL
bcc


@<TRIPOS>ATOM
      1 C11         -0.6400    -2.9040    -0.0720 c2         1 MWS      -0.185200
      2 C12          0.2580    -1.8420     0.4570 c3         1 MWS       0.181600
      3 C14          1.6230    -0.1000    -0.3270 ca         1 MWS       0.221100
      4 C15          3.0070    -0.3120    -0.3690 ca         1 MWS      -0.199800
      5 C16          3.5950    -1.5580    -0.7650 cc         1 MWS      -0.002200
      6 C17          4.9300    -1.7140    -0.7910 cd         1 MWS      -0.285200
      7 C18          5.8140    -0.6280    -0.4240 c          1 MWS       0.749800
      8 C01         -2.7430    -4.1180    -0.4890 c3         1 MWS      -0.060900
      9 C02         -1.9610    -2.9850     0.1050 c2         1 MWS      -0.078400
     10 C03         -2.7790    -1.9750     0.8640 c3         1 MWS      -0.046200
     11 C04         -3.4340    -0.9540    -0.0710 c3         1 MWS      -0.103400
     12 C05         -4.2760     0.0660     0.6930 c3         1 MWS       0.154100
     13 C07         -4.7160     1.2780    -0.1580 c3         1 MWS       0.130800
     14 C08         -5.5240     0.8650    -1.3870 c3         1 MWS      -0.120100
     15 C09         -5.5330     2.2430     0.6990 c3         1 MWS      -0.120100
     16 C21          3.8840     0.7370    -0.0260 ca         1 MWS       0.199100
     17 C22          3.4460     1.9890     0.3630 ca         1 MWS      -0.164000
     18 C23          2.0740     2.1490     0.3860 ca         1 MWS       0.116100
     19 C24          1.1520     1.1480     0.0550 ca         1 MWS      -0.171800
     20 C25         -0.1450     1.7510     0.2020 cc         1 MWS      -0.159200
     21 C26          0.0880     3.0140     0.5990 cd         1 MWS      -0.026900
     22 O06         -5.3760    -0.5490     1.3280 oh         1 MWS      -0.591800
     23 O10         -3.5000     1.8970    -0.5530 oh         1 MWS      -0.607800
     24 O13          0.7730    -1.0930    -0.6660 os         1 MWS      -0.339900
     25 O19          7.0190    -0.6650    -0.4100 o          1 MWS      -0.557500
     26 O20          5.2240     0.5420    -0.0660 os         1 MWS      -0.341200
     27 O27          1.4220     3.2760     0.7180 os         1 MWS      -0.171200
     28 H1          -0.1460    -3.6800    -0.6520 ha         1 MWS       0.129000
     29 H2          -0.2540    -1.1640     1.1440 h1         1 MWS       0.042200
     30 H3           1.1000    -2.2840     1.0000 h1         1 MWS       0.042200
     31 H4           2.9530    -2.3790    -1.0540 ha         1 MWS       0.151000
     32 H5           5.3890    -2.6450    -1.0890 ha         1 MWS       0.164000
     33 H6          -3.5390    -3.7450    -1.1380 hc         1 MWS       0.043367
     34 H7          -2.1170    -4.7900    -1.0740 hc         1 MWS       0.043367
     35 H8          -3.2320    -4.7020     0.2940 hc         1 MWS       0.043367
     36 H9          -3.5520    -2.5010     1.4310 hc         1 MWS       0.052200
     37 H10         -2.1750    -1.4440     1.6030 hc         1 MWS       0.052200
     38 H11         -2.6560    -0.4390    -0.6370 hc         1 MWS       0.056200
     39 H12         -4.0570    -1.4690    -0.8100 hc         1 MWS       0.056200
     40 H13         -3.6630     0.4720     1.5070 h1         1 MWS       0.079700
     41 H14         -6.4270     0.3160    -1.1150 hc         1 MWS       0.043700
     42 H15         -5.8510     1.7490    -1.9400 hc         1 MWS       0.043700
     43 H16         -4.9410     0.2450    -2.0700 hc         1 MWS       0.043700
     44 H17         -6.4930     1.8160     0.9840 hc         1 MWS       0.043700
     45 H18         -4.9970     2.5140     1.6110 hc         1 MWS       0.043700
     46 H19         -5.7360     3.1620     0.1430 hc         1 MWS       0.043700
     47 H20          4.1350     2.7810     0.6220 ha         1 MWS       0.176000
     48 H21         -1.1130     1.3160     0.0190 ha         1 MWS       0.186000
     49 H22         -0.5740     3.8320     0.8300 h4         1 MWS       0.192000
     50 H23         -5.8590    -1.0710     0.6780 ho         1 MWS       0.400000
     51 H24         -3.7120     2.6900    -1.0560 ho         1 MWS       0.408000
@<TRIPOS>BOND
     1     1     2 1   
     2     1     9 2   
     3     1    28 1   
     4     2    24 1   
     5     2    29 1   
     6     2    30 1   
     7     3     4 ar  
     8     3    19 ar  
     9     3    24 1   
    10     4     5 1   
    11     4    16 ar  
    12     5     6 2   
    13     5    31 1   
    14     6     7 1   
    15     6    32 1   
    16     7    25 2   
    17     7    26 1   
    18     8     9 1   
    19     8    33 1   
    20     8    34 1   
    21     8    35 1   
    22     9    10 1   
    23    10    11 1   
    24    10    36 1   
    25    10    37 1   
    26    11    12 1   
    27    11    38 1   
    28    11    39 1   
    29    12    13 1   
    30    12    22 1   
    31    12    40 1   
    32    13    14 1   
    33    13    15 1   
    34    13    23 1   
    35    14    41 1   
    36    14    42 1   
    37    14    43 1   
    38    15    44 1   
    39    15    45 1   
    40    15    46 1   
    41    16    17 ar  
    42    16    26 1   
    43    17    18 ar  
    44    17    47 1   
    45    18    19 ar  
    46    18    27 1   
    47    19    20 1   
    48    20    21 2   
    49    20    48 1   
    50    21    27 1   
    51    21    49 1   
    52    22    50 1   
    53    23    51 1   
@<TRIPOS>SUBSTRUCTURE
     1 MWS         1 TEMP              0 ****  ****    0 ROOT
