@<TRIPOS>MOLECULE
MWT
   75    79     1     0     0
SMALL
abcg2


@<TRIPOS>ATOM
      1 OAC         21.5190     2.8910   -68.0310 o          1 MWT      -0.578000
      2 CBC         22.4410     2.3500   -67.4220 c          1 MWT       0.572000
      3 NAZ         23.5810     2.9710   -66.9610 ns         1 MWT      -0.479900
      4 CAQ         24.2970     2.0860   -66.0410 c5         1 MWT       0.065000
      5 CAV         23.8280     0.7070   -66.5200 c5         1 MWT       0.087000
      6 NBK         22.5230     1.0220   -67.0960 n          1 MWT      -0.423800
      7 CAW         21.6470     0.0390   -67.6930 c3         1 MWT       0.118000
      8 CAR         22.1080    -0.4750   -69.0450 c3         1 MWT       0.128600
      9 OBA         23.1710    -1.4200   -68.8340 os         1 MWT      -0.350100
     10 CBH         23.8470    -1.9170   -69.8870 ca         1 MWT       0.178100
     11 CAL         23.6100    -1.5060   -71.1970 ca         1 MWT      -0.192000
     12 CBF         24.3690    -2.0460   -72.2240 ca         1 MWT      -0.032200
     13 NBL         24.1280    -1.5910   -73.5560 na         1 MWT       0.318000
     14 CAM         23.7280    -0.3520   -73.9510 cc         1 MWT      -0.164000
     15 NAY         24.3020    -2.4050   -74.5750 n2         1 MWT      -0.275600
     16 NBM         24.0160    -1.6800   -75.6300 na         1 MWT       0.177800
     17 CAA         24.1060    -2.2700   -76.9610 c3         1 MWT       0.048900
     18 CBG         23.6500    -0.4040   -75.3200 cd         1 MWT      -0.104300
     19 CAS         23.2810     0.6180   -76.3330 c3         1 MWT      -0.030100
     20 CAP         22.9100     1.9650   -75.7070 c3         1 MWT      -0.067400
     21 CAO         22.5770     3.0470   -76.7430 c3         1 MWT      -0.073400
     22 CAN         23.7700     3.8600   -77.2410 c3         1 MWT       0.145800
     23 NAB         24.7680     3.0500   -77.9590 n8         1 MWT      -1.010200
     24 CAI         25.3510    -2.9980   -71.9910 ca         1 MWT      -0.105000
     25 CAJ         25.5580    -3.4150   -70.6890 ca         1 MWT      -0.034000
     26 CBI         24.8250    -2.8990   -69.6140 ca         1 MWT      -0.096500
     27 CBJ         25.0990    -3.4100   -68.2700 cc         1 MWT       0.448900
     28 NAX         26.0230    -4.3150   -68.0410 nd         1 MWT      -0.641000
     29 SBB         24.2570    -2.9220   -66.8220 ss         1 MWT       0.042600
     30 CAK         25.2230    -4.0030   -65.9100 cc         1 MWT      -0.265000
     31 CBE         26.1080    -4.6610   -66.7190 cd         1 MWT       0.304300
     32 CAU         27.0860    -5.7060   -66.2840 c3         1 MWT      -0.105700
     33 CAT         26.6640    -7.1220   -66.7320 c3         1 MWT      -0.024100
     34 CBD         27.6670    -8.1650   -66.3170 ca         1 MWT      -0.090300
     35 CAG         27.6170    -8.7350   -65.0430 ca         1 MWT      -0.106000
     36 CAE         28.5660    -9.6680   -64.6400 ca         1 MWT      -0.107000
     37 CAD         29.5850   -10.0490   -65.5090 ca         1 MWT      -0.104000
     38 CAF         29.6440    -9.4890   -66.7820 ca         1 MWT      -0.107000
     39 CAH         28.6930    -8.5550   -67.1790 ca         1 MWT      -0.106000
     40 H1          23.9950     2.2660   -65.0050 h1         1 MWT       0.060700
     41 H2          23.7380    -0.0140   -65.7100 h1         1 MWT       0.056200
     42 H3          24.5020     0.2990   -67.2780 h1         1 MWT       0.056200
     43 H4          20.6730     0.5080   -67.8300 h1         1 MWT       0.086200
     44 H5          21.5250    -0.7970   -67.0020 h1         1 MWT       0.086200
     45 H6          22.4670     0.3540   -69.6580 h1         1 MWT       0.053200
     46 H7          21.2870    -0.9770   -69.5640 h1         1 MWT       0.053200
     47 H8          22.8340    -0.7900   -71.4150 ha         1 MWT       0.135000
     48 H9          23.5580     0.4520   -73.2600 h4         1 MWT       0.216000
     49 H10         24.4020    -3.3070   -76.8450 h1         1 MWT       0.098700
     50 H11         23.1340    -2.2010   -77.4450 h1         1 MWT       0.098700
     51 H12         24.8490    -1.7230   -77.5400 h1         1 MWT       0.098700
     52 H13         22.4360     0.2370   -76.9170 hc         1 MWT       0.090700
     53 H14         23.7280     2.3120   -75.0670 hc         1 MWT       0.045700
     54 H15         21.8730     3.7520   -76.2940 hc         1 MWT       0.060700
     55 H16         22.0630     2.5930   -77.5970 hc         1 MWT       0.060700
     56 H17         24.2070     4.3960   -76.3870 h1         1 MWT       0.042200
     57 H18         23.4030     4.6180   -77.9360 h1         1 MWT       0.042200
     58 H19         25.4140     3.6670   -78.4420 hn         1 MWT       0.394500
     59 H20         25.3360     2.5310   -77.2980 hn         1 MWT       0.394500
     60 H22         25.9430    -3.3930   -72.8030 ha         1 MWT       0.146000
     61 H23         26.3140    -4.1580   -70.4810 ha         1 MWT       0.169000
     62 H24         25.0990    -4.1030   -64.8430 h4         1 MWT       0.171000
     63 H25         28.0690    -5.4790   -66.7050 hc         1 MWT       0.063700
     64 H26         27.1800    -5.6840   -65.1980 hc         1 MWT       0.063700
     65 H27         25.6880    -7.3480   -66.2960 hc         1 MWT       0.051700
     66 H28         26.5480    -7.1280   -67.8170 hc         1 MWT       0.051700
     67 H29         26.8240    -8.4460   -64.3620 ha         1 MWT       0.108500
     68 H30         28.5090   -10.1020   -63.6490 ha         1 MWT       0.116000
     69 H31         30.3230   -10.7780   -65.1990 ha         1 MWT       0.118000
     70 H32         30.4300    -9.7820   -67.4670 ha         1 MWT       0.116000
     71 H33         28.7430    -8.1240   -68.1730 ha         1 MWT       0.108500
     72 H34         23.5110     3.9570   -66.7570 hn         1 MWT       0.327500
     73 H35         25.3750     2.2070   -66.1230 h1         1 MWT       0.060700
     74 H36         24.1090     0.7240   -77.0370 hc         1 MWT       0.090700
     75 H37         22.0490     1.8100   -75.0540 hc         1 MWT       0.045700
@<TRIPOS>BOND
     1     1     2 2   
     2     2     3 1   
     3     2     6 1   
     4     3     4 1   
     5     3    72 1   
     6     4     5 1   
     7     4    40 1   
     8     4    73 1   
     9     5     6 1   
    10     5    41 1   
    11     5    42 1   
    12     6     7 1   
    13     7     8 1   
    14     7    43 1   
    15     7    44 1   
    16     8     9 1   
    17     8    45 1   
    18     8    46 1   
    19     9    10 1   
    20    10    11 ar  
    21    10    26 ar  
    22    11    12 ar  
    23    11    47 1   
    24    12    13 1   
    25    12    24 ar  
    26    13    14 1   
    27    13    15 2   
    28    14    18 2   
    29    14    48 1   
    30    15    16 1   
    31    16    17 1   
    32    16    18 1   
    33    17    49 1   
    34    17    50 1   
    35    17    51 1   
    36    18    19 1   
    37    19    20 1   
    38    19    52 1   
    39    19    74 1   
    40    20    21 1   
    41    20    53 1   
    42    20    75 1   
    43    21    22 1   
    44    21    54 1   
    45    21    55 1   
    46    22    23 1   
    47    22    56 1   
    48    22    57 1   
    49    23    58 1   
    50    23    59 1   
    51    24    25 ar  
    52    24    60 1   
    53    25    26 ar  
    54    25    61 1   
    55    26    27 1   
    56    27    28 2   
    57    27    29 1   
    58    28    31 1   
    59    29    30 1   
    60    30    31 2   
    61    30    62 1   
    62    31    32 1   
    63    32    33 1   
    64    32    63 1   
    65    32    64 1   
    66    33    34 1   
    67    33    65 1   
    68    33    66 1   
    69    34    35 ar  
    70    34    39 ar  
    71    35    36 ar  
    72    35    67 1   
    73    36    37 ar  
    74    36    68 1   
    75    37    38 ar  
    76    37    69 1   
    77    38    39 ar  
    78    38    70 1   
    79    39    71 1   
@<TRIPOS>SUBSTRUCTURE
     1 MWT         1 TEMP              0 ****  ****    0 ROOT
