@<TRIPOS>MOLECULE
MWT
   75    79     1     0     0
SMALL
No Charge or Current Charge


@<TRIPOS>ATOM
      1 OAC         22.8880     2.8650   -67.2330 o          1 MWT      -0.578000
      2 CBC         23.3380     1.8550   -66.7190 c          1 MWT       0.572000
      3 NAZ         24.3730     1.8240   -65.8460 ns         1 MWT      -0.479900
      4 CAQ         24.6860     0.4700   -65.3690 c5         1 MWT       0.065000
      5 CAV         23.6640    -0.4280   -66.1560 c5         1 MWT       0.087000
      6 NBK         22.8940     0.5670   -66.9220 n          1 MWT      -0.423800
      7 CAW         21.7420     0.2650   -67.8050 c3         1 MWT       0.118000
      8 CAR         22.1450    -0.1860   -69.2250 c3         1 MWT       0.128600
      9 OBA         22.8440    -1.4390   -69.1140 os         1 MWT      -0.350100
     10 CBH         23.3930    -2.0970   -70.1960 ca         1 MWT       0.178100
     11 CAL         23.2440    -1.6020   -71.5110 ca         1 MWT      -0.192000
     12 CBF         23.8590    -2.2540   -72.6010 ca         1 MWT      -0.032200
     13 NBL         23.7140    -1.7660   -73.9050 na         1 MWT       0.318000
     14 CAM         23.7870    -0.4190   -74.2040 cc         1 MWT      -0.164000
     15 NAY         23.4330    -2.5740   -74.9720 n2         1 MWT      -0.275600
     16 NBM         23.3380    -1.6590   -75.9850 na         1 MWT       0.177800
     17 CAA         23.0440    -2.1130   -77.3510 c3         1 MWT       0.048900
     18 CBG         23.5420    -0.3510   -75.5590 cd         1 MWT      -0.104300
     19 CAS         23.4940     0.8590   -76.4680 c3         1 MWT      -0.030100
     20 CAP         23.5180     2.2050   -75.7030 c3         1 MWT      -0.067400
     21 CAO         23.2750     3.4730   -76.5660 c3         1 MWT      -0.073400
     22 CAN         24.4370     3.9100   -77.4920 c3         1 MWT       0.145800
     23 NAB         24.5670     3.0740   -78.7030 n8         1 MWT      -1.010200
     24 CAI         24.6330    -3.4040   -72.3590 ca         1 MWT      -0.105000
     25 CAJ         24.7830    -3.9000   -71.0550 ca         1 MWT      -0.034000
     26 CBI         24.1440    -3.2720   -69.9650 ca         1 MWT      -0.096500
     27 CBJ         24.3500    -3.7950   -68.6090 cc         1 MWT       0.448900
     28 NAX         25.5070    -4.3300   -68.2300 nd         1 MWT      -0.641000
     29 SBB         23.0430    -3.9240   -67.4500 ss         1 MWT       0.042600
     30 CAK         24.1690    -4.6720   -66.3580 cc         1 MWT      -0.265000
     31 CBE         25.4060    -4.8140   -66.9370 cd         1 MWT       0.304300
     32 CAU         26.6050    -5.4410   -66.2810 c3         1 MWT      -0.105700
     33 CAT         26.8360    -6.8990   -66.7290 c3         1 MWT      -0.024100
     34 CBD         28.0420    -7.5250   -66.0410 ca         1 MWT      -0.090300
     35 CAG         27.8840    -8.2260   -64.8290 ca         1 MWT      -0.106000
     36 CAE         28.9990    -8.7990   -64.1920 ca         1 MWT      -0.107000
     37 CAD         30.2770    -8.6740   -64.7610 ca         1 MWT      -0.104000
     38 CAF         30.4400    -7.9730   -65.9690 ca         1 MWT      -0.107000
     39 CAH         29.3260    -7.4000   -66.6060 ca         1 MWT      -0.106000
     40 H1          24.5390     0.3780   -64.2850 h1         1 MWT       0.060700
     41 H2          23.0190    -1.0010   -65.4780 h1         1 MWT       0.056200
     42 H3          24.1830    -1.1280   -66.8220 h1         1 MWT       0.056200
     43 H4          21.1000     1.1520   -67.8860 h1         1 MWT       0.086200
     44 H5          21.1380    -0.5260   -67.3420 h1         1 MWT       0.086200
     45 H6          22.7840     0.5820   -69.6790 h1         1 MWT       0.053200
     46 H7          21.2410    -0.3000   -69.8360 h1         1 MWT       0.053200
     47 H8          22.6490    -0.7130   -71.7000 ha         1 MWT       0.135000
     48 H9          24.0040     0.3410   -73.4640 h4         1 MWT       0.216000
     49 H10         23.0230    -3.2080   -77.3870 h1         1 MWT       0.098700
     50 H11         22.0680    -1.7230   -77.6620 h1         1 MWT       0.098700
     51 H12         23.8190    -1.7450   -78.0330 h1         1 MWT       0.098700
     52 H13         22.5870     0.8220   -77.0850 hc         1 MWT       0.090700
     53 H14         24.4720     2.3060   -75.1700 hc         1 MWT       0.045700
     54 H15         23.0810     4.3050   -75.8780 hc         1 MWT       0.060700
     55 H16         22.3580     3.3530   -77.1550 hc         1 MWT       0.060700
     56 H17         25.3860     3.9040   -76.9370 h1         1 MWT       0.042200
     57 H18         24.2460     4.9420   -77.8200 h1         1 MWT       0.042200
     58 H19         25.3150     3.4580   -79.2950 hn         1 MWT       0.394500
     59 H20         24.9260     2.1520   -78.4380 hn         1 MWT       0.394500
     60 H22         25.1280    -3.9160   -73.1830 ha         1 MWT       0.146000
     61 H23         25.3920    -4.7880   -70.8920 ha         1 MWT       0.169000
     62 H24         23.8460    -4.9710   -65.3700 h4         1 MWT       0.171000
     63 H25         27.5010    -4.8500   -66.5050 hc         1 MWT       0.063700
     64 H26         26.4840    -5.4170   -65.1910 hc         1 MWT       0.063700
     65 H27         25.9330    -7.4870   -66.5180 hc         1 MWT       0.051700
     66 H28         26.9690    -6.9250   -67.8180 hc         1 MWT       0.051700
     67 H29         26.8990    -8.3260   -64.3800 ha         1 MWT       0.108500
     68 H30         28.8710    -9.3400   -63.2560 ha         1 MWT       0.116000
     69 H31         31.1390    -9.1170   -64.2680 ha         1 MWT       0.118000
     70 H32         31.4300    -7.8740   -66.4100 ha         1 MWT       0.116000
     71 H33         29.4610    -6.8580   -67.5390 ha         1 MWT       0.108500
     72 H34         24.8260     2.6880   -65.5730 hn         1 MWT       0.327500
     73 H35         25.7220     0.1850   -65.5970 h1         1 MWT       0.060700
     74 H36         24.3440     0.8160   -77.1570 hc         1 MWT       0.090700
     75 H37         22.7350     2.1730   -74.9350 hc         1 MWT       0.045700
@<TRIPOS>BOND
     1     1     2 2   
     2     2     3 1   
     3     2     6 1   
     4     3     4 1   
     5     3    72 1   
     6     4     5 1   
     7     4    40 1   
     8     4    73 1   
     9     5     6 1   
    10     5    41 1   
    11     5    42 1   
    12     6     7 1   
    13     7     8 1   
    14     7    43 1   
    15     7    44 1   
    16     8     9 1   
    17     8    45 1   
    18     8    46 1   
    19     9    10 1   
    20    10    11 ar  
    21    10    26 ar  
    22    11    12 ar  
    23    11    47 1   
    24    12    13 1   
    25    12    24 ar  
    26    13    14 1   
    27    13    15 2   
    28    14    18 2   
    29    14    48 1   
    30    15    16 1   
    31    16    17 1   
    32    16    18 1   
    33    17    49 1   
    34    17    50 1   
    35    17    51 1   
    36    18    19 1   
    37    19    20 1   
    38    19    52 1   
    39    19    74 1   
    40    20    21 1   
    41    20    53 1   
    42    20    75 1   
    43    21    22 1   
    44    21    54 1   
    45    21    55 1   
    46    22    23 1   
    47    22    56 1   
    48    22    57 1   
    49    23    58 1   
    50    23    59 1   
    51    24    25 ar  
    52    24    60 1   
    53    25    26 ar  
    54    25    61 1   
    55    26    27 1   
    56    27    28 2   
    57    27    29 1   
    58    28    31 1   
    59    29    30 1   
    60    30    31 2   
    61    30    62 1   
    62    31    32 1   
    63    32    33 1   
    64    32    63 1   
    65    32    64 1   
    66    33    34 1   
    67    33    65 1   
    68    33    66 1   
    69    34    35 ar  
    70    34    39 ar  
    71    35    36 ar  
    72    35    67 1   
    73    36    37 ar  
    74    36    68 1   
    75    37    38 ar  
    76    37    69 1   
    77    38    39 ar  
    78    38    70 1   
    79    39    71 1   
@<TRIPOS>SUBSTRUCTURE
     1 MWT         1 TEMP              0 ****  ****    0 ROOT
