@<TRIPOS>MOLECULE
MWU
   19    19     1     0     0
SMALL
No Charge or Current Charge


@<TRIPOS>ATOM
      1 C1           1.5540   -24.9080   -58.2180 c2         1 MWU      -0.264000
      2 C2           1.1530   -25.6880   -57.1780 ce         1 MWU      -0.273200
      3 C3           0.9890   -25.2620   -55.7550 c          1 MWU       0.608300
      4 O1           0.6220   -26.0510   -54.8980 o          1 MWU      -0.581100
      5 N1           1.2850   -23.9430   -55.5030 ns         1 MWU      -0.318900
      6 C4           1.2420   -23.1940   -54.3200 ca         1 MWU       0.474900
      7 N2           1.7530   -21.9620   -54.5170 nb         1 MWU      -0.735000
      8 C5           1.7800   -21.1150   -53.4620 ca         1 MWU       0.367900
      9 C6           1.3010   -21.4670   -52.1900 ca         1 MWU      -0.195000
     10 C7           0.7660   -22.7490   -51.9870 ca         1 MWU      -0.051000
     11 C8           0.7360   -23.6310   -53.0790 ca         1 MWU      -0.173000
     12 H1           1.8060   -23.8520   -58.1100 ha         1 MWU       0.172000
     13 H2           1.6430   -25.3150   -59.2270 ha         1 MWU       0.172000
     14 H4           0.9150   -26.7380   -57.3490 ha         1 MWU       0.205000
     15 H6           1.5940   -23.4120   -56.3030 hn         1 MWU       0.167000
     16 H7           2.1980   -20.1260   -53.6440 h4         1 MWU       0.019100
     17 H8           1.3460   -20.7490   -51.3760 ha         1 MWU       0.126000
     18 H9           0.3850   -23.0500   -51.0130 ha         1 MWU       0.121000
     19 H10          0.3220   -24.6240   -52.9520 ha         1 MWU       0.158000
@<TRIPOS>BOND
     1     1     2 2   
     2     1    12 1   
     3     1    13 1   
     4     2     3 1   
     5     2    14 1   
     6     3     4 2   
     7     3     5 1   
     8     5     6 1   
     9     5    15 1   
    10     6     7 ar  
    11     6    11 ar  
    12     7     8 ar  
    13     8     9 ar  
    14     8    16 1   
    15     9    10 ar  
    16     9    17 1   
    17    10    11 ar  
    18    10    18 1   
    19    11    19 1   
@<TRIPOS>SUBSTRUCTURE
     1 MWU         1 TEMP              0 ****  ****    0 ROOT
