@<TRIPOS>MOLECULE
MWU
   19    19     1     0     0
SMALL
abcg2


@<TRIPOS>ATOM
      1 C1           1.3160   -24.9450   -58.2360 c2         1 MWU      -0.264000
      2 C2           1.2630   -25.6910   -57.1360 ce         1 MWU      -0.273200
      3 C3           1.0690   -25.2000   -55.7460 c          1 MWU       0.608300
      4 O1           0.5870   -25.9410   -54.8920 o          1 MWU      -0.581100
      5 N1           1.4560   -23.9130   -55.5020 ns         1 MWU      -0.318900
      6 C4           1.3490   -23.1600   -54.3300 ca         1 MWU       0.474900
      7 N2           1.9110   -21.9510   -54.4320 nb         1 MWU      -0.735000
      8 C5           1.8630   -21.1390   -53.3750 ca         1 MWU       0.367900
      9 C6           1.2600   -21.4840   -52.1740 ca         1 MWU      -0.195000
     10 C7           0.6780   -22.7440   -52.0800 ca         1 MWU      -0.051000
     11 C8           0.7150   -23.6050   -53.1650 ca         1 MWU      -0.173000
     12 H1           1.2480   -23.8630   -58.2190 ha         1 MWU       0.172000
     13 H2           1.4130   -25.4050   -59.2110 ha         1 MWU       0.172000
     14 H4           1.2880   -26.7730   -57.2010 ha         1 MWU       0.205000
     15 H6           1.9260   -23.4170   -56.2460 hn         1 MWU       0.167000
     16 H7           2.3310   -20.1680   -53.4990 h4         1 MWU       0.019100
     17 H8           1.2480   -20.7900   -51.3460 ha         1 MWU       0.126000
     18 H9           0.1930   -23.0580   -51.1650 ha         1 MWU       0.121000
     19 H10          0.2770   -24.5870   -53.1260 ha         1 MWU       0.158000
@<TRIPOS>BOND
     1     1     2 2   
     2     1    12 1   
     3     1    13 1   
     4     2     3 1   
     5     2    14 1   
     6     3     4 2   
     7     3     5 1   
     8     5     6 1   
     9     5    15 1   
    10     6     7 ar  
    11     6    11 ar  
    12     7     8 ar  
    13     8     9 ar  
    14     8    16 1   
    15     9    10 ar  
    16     9    17 1   
    17    10    11 ar  
    18    10    18 1   
    19    11    19 1   
@<TRIPOS>SUBSTRUCTURE
     1 MWU         1 TEMP              0 ****  ****    0 ROOT
