@<TRIPOS>MOLECULE
MWV
   74    77     1     0     0
SMALL
bcc


@<TRIPOS>ATOM
      1 C01         -5.2040     5.7000     0.2300 c3         1 MWV       0.120700
      2 C03         -4.2940     3.5630     0.2990 c3         1 MWV       0.069400
      3 C04         -3.1370     2.7240    -0.1980 c          1 MWV       0.649100
      4 C07         -2.3070     0.4230     0.0710 c6         1 MWV       0.202800
      5 C08         -0.9110     0.8250     0.5810 c3         1 MWV      -0.111400
      6 C09          0.1280    -0.2960     0.5950 c3         1 MWV       0.171800
      7 C11          1.7190     0.8100     2.0130 c3         1 MWV       0.145100
      8 C12          2.4490    -0.8260     0.4080 c3         1 MWV       0.165800
      9 C13          3.8760    -0.3160     0.2650 c3         1 MWV      -0.068400
     10 C14          4.7920    -1.4230    -0.2370 c3         1 MWV      -0.090700
     11 C15          6.2130    -0.9990    -0.3750 cc         1 MWV       0.416800
     12 C17          8.3880    -1.2160    -0.6600 ca         1 MWV      -0.078200
     13 C18          9.7070    -1.6140    -0.8440 ca         1 MWV      -0.135000
     14 C19         10.6570    -0.6080    -0.9100 ca         1 MWV      -0.111000
     15 C20         10.3020     0.7440    -0.7960 ca         1 MWV      -0.154000
     16 C21          8.9860     1.1310    -0.6130 ca         1 MWV      -0.066000
     17 C22          8.0140     0.1330    -0.5430 ca         1 MWV       0.069400
     18 C24         -2.2500     0.1190    -1.4260 c6         1 MWV      -0.104400
     19 C25         -3.6300    -0.0760    -2.0200 c6         1 MWV      -0.030100
     20 C26         -4.3480    -1.1770    -1.2970 ca         1 MWV      -0.042300
     21 C27         -3.9710    -1.5420    -0.0030 ca         1 MWV      -0.084300
     22 C28         -4.5690    -2.6790     0.5490 ca         1 MWV      -0.105000
     23 C29         -5.5520    -3.3960    -0.1090 ca         1 MWV      -0.172000
     24 C30         -5.9410    -2.9660    -1.3620 ca         1 MWV       0.135900
     25 C32         -5.3460    -1.8850    -1.9680 ca         1 MWV      -0.172000
     26 C33         -2.9320    -0.7810     0.8220 c6         1 MWV       0.007600
     27 C34         -3.4960    -0.5240     2.2550 c3         1 MWV      -0.038700
     28 C35         -2.5380     0.1570     3.2280 c3         1 MWV      -0.083100
     29 C36         -4.8710     0.1420     2.3300 c3         1 MWV      -0.083100
     30 F31         -6.9070    -3.6360    -2.0160 f          1 MWV      -0.144900
     31 N10          1.4840     0.2180     0.7110 n3         1 MWV      -0.710600
     32 N16          7.2120    -1.9070    -0.5470 na         1 MWV      -0.269300
     33 N23          6.6530     0.2300    -0.3660 nd         1 MWV      -0.573100
     34 O02         -4.1640     4.8550    -0.2000 os         1 MWV      -0.378600
     35 O05         -2.2860     3.1260    -0.9450 o          1 MWV      -0.509000
     36 O06         -3.2330     1.5100     0.3160 os         1 MWV      -0.441900
     37 H1          -6.1850     5.3500    -0.1120 h1         1 MWV       0.033033
     38 H2          -5.2370     5.7870     1.3220 h1         1 MWV       0.033033
     39 H3          -5.0230     6.6880    -0.1900 h1         1 MWV       0.033033
     40 H4          -5.2340     3.0870    -0.0210 h1         1 MWV       0.049200
     41 H5          -4.2990     3.5420     1.4000 h1         1 MWV       0.049200
     42 H6          -0.5260     1.6090    -0.0730 hc         1 MWV       0.073200
     43 H7          -1.0020     1.2650     1.5720 hc         1 MWV       0.073200
     44 H8          -0.0850    -1.0210     1.3980 h1         1 MWV       0.028700
     45 H9           0.0740    -0.8560    -0.3420 h1         1 MWV       0.028700
     46 H10          1.6430     0.0780     2.8340 h1         1 MWV       0.032700
     47 H11          2.7070     1.2660     2.0610 h1         1 MWV       0.032700
     48 H12          1.0000     1.6030     2.2090 h1         1 MWV       0.032700
     49 H13          2.1510    -1.2830    -0.5410 h1         1 MWV       0.024700
     50 H14          2.4250    -1.6340     1.1610 h1         1 MWV       0.024700
     51 H15          3.8900     0.5260    -0.4300 hc         1 MWV       0.068200
     52 H16          4.2580     0.0530     1.2180 hc         1 MWV       0.068200
     53 H17          4.7480    -2.2840     0.4370 hc         1 MWV       0.049700
     54 H18          4.4420    -1.7880    -1.2090 hc         1 MWV       0.049700
     55 H19          9.9820    -2.6570    -0.9340 ha         1 MWV       0.133000
     56 H20         11.6970    -0.8720    -1.0530 ha         1 MWV       0.130000
     57 H21         11.0760     1.4980    -0.8540 ha         1 MWV       0.132000
     58 H22          8.7150     2.1750    -0.5250 ha         1 MWV       0.146000
     59 H23         -1.7010     0.8950    -1.9580 hc         1 MWV       0.066200
     60 H24         -4.2150     0.8490    -1.9980 hc         1 MWV       0.058700
     61 H25         -4.2640    -3.0290     1.5270 ha         1 MWV       0.132000
     62 H26         -6.0020    -4.2700     0.3440 ha         1 MWV       0.149000
     63 H27         -5.6340    -1.5970    -2.9720 ha         1 MWV       0.149000
     64 H28         -2.1070    -1.4870     0.9670 hc         1 MWV       0.057700
     65 H29         -3.6320    -1.5300     2.6590 hc         1 MWV       0.032700
     66 H30         -2.4490     1.2280     3.0480 hc         1 MWV       0.034367
     67 H31         -2.9150     0.0370     4.2450 hc         1 MWV       0.034367
     68 H32         -1.5380    -0.2810     3.2040 hc         1 MWV       0.034367
     69 H33         -4.8220     1.2170     2.1670 hc         1 MWV       0.034367
     70 H34         -5.5770    -0.2750     1.6130 hc         1 MWV       0.034367
     71 H35         -5.2900    -0.0170     3.3260 hc         1 MWV       0.034367
     72 H37          7.1000    -2.9080    -0.5760 hn         1 MWV       0.302700
     73 H39         -1.6820    -0.8060    -1.5580 hc         1 MWV       0.066200
     74 H40         -3.5370    -0.3380    -3.0750 hc         1 MWV       0.058700
@<TRIPOS>BOND
     1     1    34 1   
     2     1    37 1   
     3     1    38 1   
     4     1    39 1   
     5     2     3 1   
     6     2    34 1   
     7     2    40 1   
     8     2    41 1   
     9     3    35 2   
    10     3    36 1   
    11     4     5 1   
    12     4    18 1   
    13     4    26 1   
    14     4    36 1   
    15     5     6 1   
    16     5    42 1   
    17     5    43 1   
    18     6    31 1   
    19     6    44 1   
    20     6    45 1   
    21     7    31 1   
    22     7    46 1   
    23     7    47 1   
    24     7    48 1   
    25     8     9 1   
    26     8    31 1   
    27     8    49 1   
    28     8    50 1   
    29     9    10 1   
    30     9    51 1   
    31     9    52 1   
    32    10    11 1   
    33    10    53 1   
    34    10    54 1   
    35    11    32 1   
    36    11    33 2   
    37    12    13 ar  
    38    12    17 ar  
    39    12    32 1   
    40    13    14 ar  
    41    13    55 1   
    42    14    15 ar  
    43    14    56 1   
    44    15    16 ar  
    45    15    57 1   
    46    16    17 ar  
    47    16    58 1   
    48    17    33 1   
    49    18    19 1   
    50    18    59 1   
    51    18    73 1   
    52    19    20 1   
    53    19    60 1   
    54    19    74 1   
    55    20    21 ar  
    56    20    25 ar  
    57    21    22 ar  
    58    21    26 1   
    59    22    23 ar  
    60    22    61 1   
    61    23    24 ar  
    62    23    62 1   
    63    24    25 ar  
    64    24    30 1   
    65    25    63 1   
    66    26    27 1   
    67    26    64 1   
    68    27    28 1   
    69    27    29 1   
    70    27    65 1   
    71    28    66 1   
    72    28    67 1   
    73    28    68 1   
    74    29    69 1   
    75    29    70 1   
    76    29    71 1   
    77    32    72 1   
@<TRIPOS>SUBSTRUCTURE
     1 MWV         1 TEMP              0 ****  ****    0 ROOT
