@<TRIPOS>MOLECULE
MWV
   74    77     1     0     0
SMALL
No Charge or Current Charge


@<TRIPOS>ATOM
      1 C01         -5.1720     5.9900     0.8010 c3         1 MWV       0.143900
      2 C03         -4.2340     3.7560     0.6430 c3         1 MWV       0.092600
      3 C04         -3.1370     2.8760    -0.0010 c          1 MWV       0.600100
      4 C07         -2.4090     0.4620     0.0270 c6         1 MWV       0.226000
      5 C08         -0.9440     0.8180     0.5000 c3         1 MWV      -0.111400
      6 C09          0.1150    -0.3130     0.4430 c3         1 MWV       0.171800
      7 C11          1.7860     0.7570     1.9310 c3         1 MWV       0.145100
      8 C12          2.4790    -0.9390     0.2580 c3         1 MWV       0.165800
      9 C13          3.9520    -0.4880     0.1190 c3         1 MWV      -0.068400
     10 C14          4.8740    -1.6040    -0.4240 c3         1 MWV      -0.090700
     11 C15          6.3070    -1.1680    -0.5580 cc         1 MWV       0.416800
     12 C17          8.4060    -0.7330    -0.0110 ca         1 MWV      -0.078200
     13 C18          9.6470    -0.5640     0.6130 ca         1 MWV      -0.117000
     14 C19         10.6990    -0.0370    -0.1650 ca         1 MWV      -0.093000
     15 C20         10.4810     0.3000    -1.5240 ca         1 MWV      -0.136000
     16 C21          9.2100     0.1130    -2.1130 ca         1 MWV      -0.048000
     17 C22          8.1800    -0.4130    -1.3190 ca         1 MWV       0.069400
     18 C24         -2.4180     0.2900    -1.5210 c6         1 MWV      -0.104400
     19 C25         -3.8460     0.0950    -2.0540 c6         1 MWV      -0.030100
     20 C26         -4.4880    -1.1330    -1.4290 ca         1 MWV      -0.042300
     21 C27         -4.0690    -1.6140    -0.1610 ca         1 MWV      -0.084300
     22 C28         -4.6190    -2.8350     0.3040 ca         1 MWV      -0.087000
     23 C29         -5.6000    -3.5160    -0.4350 ca         1 MWV      -0.154000
     24 C30         -6.0360    -2.9990    -1.6580 ca         1 MWV       0.171000
     25 C32         -5.4770    -1.8190    -2.1600 ca         1 MWV      -0.154000
     26 C33         -2.9990    -0.8650     0.7010 c6         1 MWV       0.007600
     27 C34         -3.5020    -0.7300     2.2100 c3         1 MWV      -0.038700
     28 C35         -2.5010    -0.1190     3.2180 c3         1 MWV      -0.083100
     29 C36         -4.9020    -0.0820     2.3910 c3         1 MWV      -0.083100
     30 F31         -6.9790    -3.6550    -2.3700 f          1 MWV      -0.180000
     31 N10          1.5200     0.1410     0.6040 n3         1 MWV      -0.710600
     32 N16          7.2320    -1.2110     0.4820 na         1 MWV      -0.319600
     33 N23          6.8630    -0.6790    -1.6840 nd         1 MWV      -0.573100
     34 O02         -4.1670     5.1420     0.2220 os         1 MWV      -0.425000
     35 O05         -2.2930     3.2920    -0.7860 o          1 MWV      -0.460000
     36 O06         -3.2620     1.5710     0.4190 os         1 MWV      -0.465100
     37 H1          -6.1780     5.6420     0.5330 h1         1 MWV       0.033033
     38 H2          -5.0890     6.0040     1.8950 h1         1 MWV       0.033033
     39 H3          -5.0590     7.0190     0.4370 h1         1 MWV       0.033033
     40 H4          -5.2030     3.3160     0.3770 h1         1 MWV       0.049200
     41 H5          -4.1180     3.6750     1.7320 h1         1 MWV       0.049200
     42 H6          -0.5480     1.6210    -0.1300 hc         1 MWV       0.073200
     43 H7          -0.9620     1.2410     1.5050 hc         1 MWV       0.073200
     44 H8          -0.1120    -1.0620     1.2130 h1         1 MWV       0.028700
     45 H9           0.0160    -0.8150    -0.5290 h1         1 MWV       0.028700
     46 H10          1.6500     0.0240     2.7370 h1         1 MWV       0.032700
     47 H11          2.8080     1.1500     1.9920 h1         1 MWV       0.032700
     48 H12          1.1150     1.6040     2.1200 h1         1 MWV       0.032700
     49 H13          2.1850    -1.3810    -0.7040 h1         1 MWV       0.024700
     50 H14          2.4250    -1.7420     1.0060 h1         1 MWV       0.024700
     51 H15          3.9980     0.3760    -0.5550 hc         1 MWV       0.068200
     52 H16          4.3340    -0.1610     1.0920 hc         1 MWV       0.068200
     53 H17          4.8190    -2.4740     0.2420 hc         1 MWV       0.049700
     54 H18          4.5020    -1.9360    -1.4000 hc         1 MWV       0.049700
     55 H19          9.7970    -0.8280     1.6580 ha         1 MWV       0.115000
     56 H20         11.6810     0.1110     0.2800 ha         1 MWV       0.112000
     57 H21         11.2970     0.7070    -2.1180 ha         1 MWV       0.114000
     58 H22          9.0330     0.3690    -3.1550 ha         1 MWV       0.128000
     59 H23         -1.9460     1.1400    -2.0280 hc         1 MWV       0.066200
     60 H24         -4.4640     0.9810    -1.8540 hc         1 MWV       0.058700
     61 H25         -4.2890    -3.2750     1.2410 ha         1 MWV       0.114000
     62 H26         -6.0200    -4.4460    -0.0590 ha         1 MWV       0.131000
     63 H27         -5.8030    -1.4460    -3.1280 ha         1 MWV       0.131000
     64 H28         -2.1750    -1.5840     0.7630 hc         1 MWV       0.057700
     65 H29         -3.6210    -1.7520     2.5850 hc         1 MWV       0.032700
     66 H30         -2.4450     0.9700     3.1110 hc         1 MWV       0.034367
     67 H31         -2.8240    -0.3270     4.2450 hc         1 MWV       0.034367
     68 H32         -1.5010    -0.5490     3.0940 hc         1 MWV       0.034367
     69 H33         -4.8780     1.0000     2.2220 hc         1 MWV       0.034367
     70 H34         -5.6410    -0.5190     1.7100 hc         1 MWV       0.034367
     71 H35         -5.2640    -0.2430     3.4140 hc         1 MWV       0.034367
     72 H37          7.0520    -1.5380     1.4220 hn         1 MWV       0.353000
     73 H39         -1.8170    -0.5850    -1.8020 hc         1 MWV       0.066200
     74 H40         -3.8100    -0.0140    -3.1470 hc         1 MWV       0.058700
@<TRIPOS>BOND
     1     1    34 1   
     2     1    37 1   
     3     1    38 1   
     4     1    39 1   
     5     2     3 1   
     6     2    34 1   
     7     2    40 1   
     8     2    41 1   
     9     3    35 2   
    10     3    36 1   
    11     4     5 1   
    12     4    18 1   
    13     4    26 1   
    14     4    36 1   
    15     5     6 1   
    16     5    42 1   
    17     5    43 1   
    18     6    31 1   
    19     6    44 1   
    20     6    45 1   
    21     7    31 1   
    22     7    46 1   
    23     7    47 1   
    24     7    48 1   
    25     8     9 1   
    26     8    31 1   
    27     8    49 1   
    28     8    50 1   
    29     9    10 1   
    30     9    51 1   
    31     9    52 1   
    32    10    11 1   
    33    10    53 1   
    34    10    54 1   
    35    11    32 1   
    36    11    33 2   
    37    12    13 ar  
    38    12    17 ar  
    39    12    32 1   
    40    13    14 ar  
    41    13    55 1   
    42    14    15 ar  
    43    14    56 1   
    44    15    16 ar  
    45    15    57 1   
    46    16    17 ar  
    47    16    58 1   
    48    17    33 1   
    49    18    19 1   
    50    18    59 1   
    51    18    73 1   
    52    19    20 1   
    53    19    60 1   
    54    19    74 1   
    55    20    21 ar  
    56    20    25 ar  
    57    21    22 ar  
    58    21    26 1   
    59    22    23 ar  
    60    22    61 1   
    61    23    24 ar  
    62    23    62 1   
    63    24    25 ar  
    64    24    30 1   
    65    25    63 1   
    66    26    27 1   
    67    26    64 1   
    68    27    28 1   
    69    27    29 1   
    70    27    65 1   
    71    28    66 1   
    72    28    67 1   
    73    28    68 1   
    74    29    69 1   
    75    29    70 1   
    76    29    71 1   
    77    32    72 1   
@<TRIPOS>SUBSTRUCTURE
     1 MWV         1 TEMP              0 ****  ****    0 ROOT
