@<TRIPOS>MOLECULE
MWW
   76    80     1     0     0
SMALL
No Charge or Current Charge


@<TRIPOS>ATOM
      1 C27         21.9160     1.1610   -75.3020 c3         1 MWW      -0.093700
      2 C13         21.2400     0.1940   -66.4590 c3         1 MWW      -0.076400
      3 C11         26.5370    -6.8760   -66.7340 c3         1 MWW      -0.028100
      4 C15         27.8660    -7.4910   -66.3180 ca         1 MWW      -0.079300
      5 C25         21.8680    -0.0730   -74.4430 cc         1 MWW       0.211300
      6 C01         30.3310    -8.6210   -65.5420 ca         1 MWW      -0.111000
      7 C02         30.2470    -7.8560   -66.7180 ca         1 MWW      -0.110000
      8 C03         29.1860    -8.8210   -64.7530 ca         1 MWW      -0.110000
      9 C04         29.0180    -7.2920   -67.1040 ca         1 MWW      -0.107000
     10 C05         27.9570    -8.2570   -65.1390 ca         1 MWW      -0.107000
     11 C06         23.2210    -3.2060   -71.6560 ca         1 MWW      -0.136000
     12 C07         23.6230    -3.7610   -70.4310 ca         1 MWW      -0.025000
     13 C08         23.9290    -4.7670   -65.7480 cc         1 MWW      -0.295000
     14 C09         21.9820    -1.4880   -70.4700 ca         1 MWW      -0.224000
     15 N14         24.8780    -4.2900   -67.8190 nd         1 MWW      -0.661000
     16 C16         25.0370    -4.8370   -66.5560 cd         1 MWW       0.299300
     17 C17         22.3950    -2.0700   -71.6840 ca         1 MWW       0.057800
     18 C18         22.3830    -2.0430   -69.2350 ca         1 MWW       0.178100
     19 C19         23.1860    -3.2040   -69.2100 ca         1 MWW      -0.166500
     20 C20         23.6570    -3.7790   -67.9440 cc         1 MWW       0.493900
     21 O21         22.0330    -1.4550   -68.0380 os         1 MWW      -0.354100
     22 S22         22.5980    -4.0060   -66.5670 ss         1 MWW       0.032600
     23 N26         21.9990    -1.5230   -72.9070 na         1 MWW       0.210000
     24 N28         21.3330    -1.2490   -74.9120 nc         1 MWW      -0.351000
     25 C29         23.1020     1.1620   -76.2920 c3         1 MWW      -0.075400
     26 C31         23.1640     2.4420   -77.1620 c3         1 MWW      -0.075400
     27 C33         24.3740     2.5030   -78.1220 c3         1 MWW       0.159800
     28 C34         22.5310     0.6910   -65.7270 c6         1 MWW      -0.056700
     29 C35         22.1880     1.2030   -64.2990 c6         1 MWW      -0.111400
     30 C36         23.4530     1.6810   -63.5460 c6         1 MWW       0.152800
     31 C38         23.6530    -0.3840   -65.6310 c6         1 MWW      -0.111400
     32 C37         24.8730     0.1320   -64.8300 c6         1 MWW       0.152800
     33 C23         22.3170    -0.2150   -73.1650 cd         1 MWW      -0.200000
     34 N24         21.4310    -2.1590   -73.9720 nd         1 MWW      -0.183800
     35 N32         24.4690     0.6040   -63.4850 n7         1 MWW      -0.850400
     36 H1          21.9840     2.0470   -74.6580 hc         1 MWW       0.052700
     37 H2          20.9770     1.2560   -75.8610 hc         1 MWW       0.052700
     38 H3          27.1770    -4.8170   -66.5230 hc         1 MWW       0.056200
     39 H4          26.4390    -5.4860   -65.0770 hc         1 MWW       0.056200
     40 H5          20.4820     0.9850   -66.4030 hc         1 MWW       0.057700
     41 H6          20.8100    -0.6640   -65.9270 hc         1 MWW       0.057700
     42 H7          26.4640    -6.8420   -67.8280 hc         1 MWW       0.054700
     43 H8          25.7050    -7.5050   -66.3930 hc         1 MWW       0.054700
     44 H9          31.2820    -9.0570   -65.2430 ha         1 MWW       0.111000
     45 H10         31.1330    -7.7000   -67.3290 ha         1 MWW       0.111000
     46 H11         29.2500    -9.4110   -63.8410 ha         1 MWW       0.111000
     47 H12         28.9620    -6.7000   -68.0150 ha         1 MWW       0.111000
     48 H13         27.0760    -8.4140   -64.5200 ha         1 MWW       0.111000
     49 H14         23.5580    -3.6590   -72.5860 ha         1 MWW       0.150000
     50 H15         24.2690    -4.6380   -70.4320 ha         1 MWW       0.150000
     51 H16         23.8080    -5.1220   -64.7340 h4         1 MWW       0.159000
     52 H17         21.3500    -0.6060   -70.5050 ha         1 MWW       0.127000
     53 H18         21.9760     0.5990   -68.4670 h1         1 MWW       0.038700
     54 H19         20.3940    -0.2210   -68.4100 h1         1 MWW       0.038700
     55 H20         23.0240     0.2800   -76.9400 hc         1 MWW       0.045700
     56 H21         24.0390     1.0630   -75.7280 hc         1 MWW       0.045700
     57 H22         25.1760     1.5080   -79.7280 hn         1 MWW       0.396500
     58 H23         24.3710     0.5420   -78.7170 hn         1 MWW       0.396500
     59 H25         23.2100     3.3160   -76.5010 hc         1 MWW       0.045200
     60 H26         22.2370     2.5380   -77.7410 hc         1 MWW       0.045200
     61 H27         25.3060     2.3840   -77.5510 h1         1 MWW       0.023700
     62 H28         24.3960     3.4850   -78.6150 h1         1 MWW       0.023700
     63 H29         22.9130     1.5400   -66.3120 hc         1 MWW       0.044700
     64 H30         21.4680     2.0300   -64.3580 hc         1 MWW       0.046200
     65 H31         21.6990     0.4060   -63.7220 hc         1 MWW       0.046200
     66 H32         23.8750     2.5600   -64.0560 h1         1 MWW       0.051700
     67 H33         23.1790     1.9910   -62.5260 h1         1 MWW       0.051700
     68 H34         23.2610    -1.2940   -65.1570 hc         1 MWW       0.046200
     69 H35         23.9960    -0.6730   -66.6320 hc         1 MWW       0.046200
     70 H36         25.6160    -0.6730   -64.7330 h1         1 MWW       0.051700
     71 H37         25.3500     0.9570   -65.3820 h1         1 MWW       0.051700
     72 H38         22.8000     0.4620   -72.4740 h4         1 MWW       0.167000
     73 H39         24.0610    -0.1900   -62.9780 hn         1 MWW       0.406000
     74 C12         26.3550    -5.4510   -66.1700 c3         1 MWW      -0.099700
     75 C10         21.3910    -0.1740   -67.9520 c3         1 MWW       0.169600
     76 N30         24.3170     1.4630   -79.1660 n8         1 MWW      -1.008200
@<TRIPOS>BOND
     1     1     5 1   
     2     1    25 1   
     3     1    36 1   
     4     1    37 1   
     5     2    28 1   
     6     2    40 1   
     7     2    41 1   
     8     2    75 1   
     9     3     4 1   
    10     3    42 1   
    11     3    43 1   
    12     3    74 1   
    13     4     9 ar  
    14     4    10 ar  
    15     5    24 1   
    16     5    33 2   
    17     6     7 ar  
    18     6     8 ar  
    19     6    44 1   
    20     7     9 ar  
    21     7    45 1   
    22     8    10 ar  
    23     8    46 1   
    24     9    47 1   
    25    10    48 1   
    26    11    12 ar  
    27    11    17 ar  
    28    11    49 1   
    29    12    19 ar  
    30    12    50 1   
    31    13    16 2   
    32    13    22 1   
    33    13    51 1   
    34    14    17 ar  
    35    14    18 ar  
    36    14    52 1   
    37    15    16 1   
    38    15    20 2   
    39    16    74 1   
    40    17    23 1   
    41    18    19 ar  
    42    18    21 1   
    43    19    20 1   
    44    20    22 1   
    45    21    75 1   
    46    23    33 1   
    47    23    34 1   
    48    24    34 2   
    49    25    26 1   
    50    25    55 1   
    51    25    56 1   
    52    26    27 1   
    53    26    59 1   
    54    26    60 1   
    55    27    61 1   
    56    27    62 1   
    57    27    76 1   
    58    28    29 1   
    59    28    31 1   
    60    28    63 1   
    61    29    30 1   
    62    29    64 1   
    63    29    65 1   
    64    30    35 1   
    65    30    66 1   
    66    30    67 1   
    67    31    32 1   
    68    31    68 1   
    69    31    69 1   
    70    32    35 1   
    71    32    70 1   
    72    32    71 1   
    73    33    72 1   
    74    35    73 1   
    75    38    74 1   
    76    39    74 1   
    77    53    75 1   
    78    54    75 1   
    79    57    76 1   
    80    58    76 1   
@<TRIPOS>SUBSTRUCTURE
     1 MWW         1 TEMP              0 ****  ****    0 ROOT
