@<TRIPOS>MOLECULE
MWW
   76    80     1     0     0
SMALL
bcc


@<TRIPOS>ATOM
      1 C27         21.7510     0.5690   -75.3540 c3         1 MWW      -0.093700
      2 C13         21.3590    -0.1240   -66.4960 c3         1 MWW      -0.076400
      3 C11         26.3440    -7.2890   -66.5650 c3         1 MWW      -0.028100
      4 C15         27.4030    -8.3330   -66.3530 ca         1 MWW      -0.079300
      5 C25         22.2500    -0.4590   -74.4020 cc         1 MWW       0.276600
      6 C01         29.4340   -10.2130   -65.9200 ca         1 MWW      -0.129000
      7 C02         29.3440    -9.5470   -67.1350 ca         1 MWW      -0.128000
      8 C03         28.5090    -9.9410   -64.9220 ca         1 MWW      -0.128000
      9 C04         28.3370    -8.6150   -67.3460 ca         1 MWW      -0.125000
     10 C05         27.5040    -9.0090   -65.1380 ca         1 MWW      -0.125000
     11 C06         24.3340    -3.0590   -71.3760 ca         1 MWW      -0.154000
     12 C07         24.7080    -3.5150   -70.1280 ca         1 MWW      -0.043000
     13 C08         25.0100    -4.2310   -65.3850 cc         1 MWW      -0.233400
     14 C09         22.7860    -1.5400   -70.3160 ca         1 MWW      -0.242000
     15 N14         25.5310    -4.4590   -67.6010 nd         1 MWW      -0.661000
     16 C16         25.7780    -4.8530   -66.3210 cd         1 MWW       0.364600
     17 C17         23.3660    -2.0690   -71.4600 ca         1 MWW       0.057800
     18 C18         23.1940    -1.9890   -69.0640 ca         1 MWW       0.178100
     19 C19         24.1590    -3.0030   -68.9540 ca         1 MWW      -0.166500
     20 C20         24.6020    -3.5520   -67.6740 cc         1 MWW       0.493900
     21 O21         22.7020    -1.5120   -67.9150 os         1 MWW      -0.330900
     22 S22         23.9520    -3.1140   -66.1280 ss         1 MWW      -0.112300
     23 N26         22.9650    -1.5900   -72.7200 na         1 MWW       0.159300
     24 N28         22.6400    -1.6960   -74.8030 nc         1 MWW      -0.351000
     25 C29         22.8760     1.2580   -76.1270 c3         1 MWW      -0.075400
     26 C31         22.3420     2.2700   -77.1340 c3         1 MWW      -0.075400
     27 C33         23.4290     3.0430   -77.8650 c3         1 MWW       0.159800
     28 C34         22.2230     1.0090   -65.9450 c6         1 MWW      -0.056700
     29 C35         21.7940     1.3520   -64.5180 c6         1 MWW      -0.111400
     30 C36         22.6450     2.4740   -63.9280 c6         1 MWW       0.152800
     31 C38         23.7270     0.7390   -65.9780 c6         1 MWW      -0.111400
     32 C37         24.5010     1.8920   -65.3380 c6         1 MWW       0.152800
     33 C23         22.4570    -0.3800   -73.0540 cd         1 MWW      -0.232600
     34 N24         23.0620    -2.3640   -73.7970 nd         1 MWW      -0.183800
     35 N32         24.0730     2.2320   -63.9950 n7         1 MWW      -0.795200
     36 H1          21.1670     1.3160   -74.8110 hc         1 MWW       0.052700
     37 H2          21.0670     0.0950   -76.0620 hc         1 MWW       0.052700
     38 H3          27.7350    -5.6400   -66.5640 hc         1 MWW       0.056200
     39 H4          27.0180    -5.9630   -64.9960 hc         1 MWW       0.056200
     40 H5          20.3160     0.2040   -66.4720 hc         1 MWW       0.057700
     41 H6          21.4090    -1.0020   -65.8450 hc         1 MWW       0.057700
     42 H7          26.0920    -7.2170   -67.6240 hc         1 MWW       0.054700
     43 H8          25.4270    -7.5730   -66.0430 hc         1 MWW       0.054700
     44 H9          30.2180   -10.9400   -65.7540 ha         1 MWW       0.129000
     45 H10         30.0570    -9.7560   -67.9220 ha         1 MWW       0.129000
     46 H11         28.5660   -10.4590   -63.9730 ha         1 MWW       0.129000
     47 H12         28.2770    -8.1040   -68.3000 ha         1 MWW       0.129000
     48 H13         26.7850    -8.8080   -64.3530 ha         1 MWW       0.129000
     49 H14         24.7860    -3.4660   -72.2680 ha         1 MWW       0.168000
     50 H15         25.4560    -4.2920   -70.0530 ha         1 MWW       0.168000
     51 H16         25.0200    -4.3710   -64.3160 h4         1 MWW       0.177000
     52 H17         22.0030    -0.8020   -70.4060 ha         1 MWW       0.145000
     53 H18         21.9610     0.3300   -68.5160 h1         1 MWW       0.038700
     54 H19         20.7720    -0.9770   -68.3910 h1         1 MWW       0.038700
     55 H20         23.4690     0.4950   -76.6360 hc         1 MWW       0.045700
     56 H21         23.5460     1.7570   -75.4180 hc         1 MWW       0.045700
     57 H22         24.8690     2.7110   -79.2660 hn         1 MWW       0.341300
     58 H23         24.8430     1.5910   -78.1010 hn         1 MWW       0.341300
     59 H25         21.6960     2.9860   -76.6160 hc         1 MWW       0.045200
     60 H26         21.7170     1.7570   -77.8700 hc         1 MWW       0.045200
     61 H27         24.0000     3.6330   -77.1310 h1         1 MWW       0.023700
     62 H28         22.9510     3.7660   -78.5290 h1         1 MWW       0.023700
     63 H29         22.0350     1.8950   -66.5700 hc         1 MWW       0.044700
     64 H30         20.7370     1.6350   -64.4980 hc         1 MWW       0.046200
     65 H31         21.8860     0.4560   -63.8920 hc         1 MWW       0.046200
     66 H32         22.4340     3.4070   -64.4630 h1         1 MWW       0.051700
     67 H33         22.3690     2.6530   -62.8860 h1         1 MWW       0.051700
     68 H34         23.9510    -0.1940   -65.4490 hc         1 MWW       0.046200
     69 H35         24.0770     0.5990   -67.0040 hc         1 MWW       0.046200
     70 H36         25.5690     1.6650   -65.3190 h1         1 MWW       0.051700
     71 H37         24.3920     2.7870   -65.9620 h1         1 MWW       0.051700
     72 H38         22.3200     0.4210   -72.3490 h4         1 MWW       0.185000
     73 H39         24.3180     1.4800   -63.3620 hn         1 MWW       0.350800
     74 C12         26.8000    -5.9110   -66.0640 c3         1 MWW      -0.099700
     75 C10         21.6620    -0.5430   -67.9220 c3         1 MWW       0.146400
     76 N30         24.2500     2.1660   -78.6820 n8         1 MWW      -0.897800
@<TRIPOS>BOND
     1     1     5 1   
     2     1    25 1   
     3     1    36 1   
     4     1    37 1   
     5     2    28 1   
     6     2    40 1   
     7     2    41 1   
     8     2    75 1   
     9     3     4 1   
    10     3    42 1   
    11     3    43 1   
    12     3    74 1   
    13     4     9 ar  
    14     4    10 ar  
    15     5    24 1   
    16     5    33 2   
    17     6     7 ar  
    18     6     8 ar  
    19     6    44 1   
    20     7     9 ar  
    21     7    45 1   
    22     8    10 ar  
    23     8    46 1   
    24     9    47 1   
    25    10    48 1   
    26    11    12 ar  
    27    11    17 ar  
    28    11    49 1   
    29    12    19 ar  
    30    12    50 1   
    31    13    16 2   
    32    13    22 1   
    33    13    51 1   
    34    14    17 ar  
    35    14    18 ar  
    36    14    52 1   
    37    15    16 1   
    38    15    20 2   
    39    16    74 1   
    40    17    23 1   
    41    18    19 ar  
    42    18    21 1   
    43    19    20 1   
    44    20    22 1   
    45    21    75 1   
    46    23    33 1   
    47    23    34 1   
    48    24    34 2   
    49    25    26 1   
    50    25    55 1   
    51    25    56 1   
    52    26    27 1   
    53    26    59 1   
    54    26    60 1   
    55    27    61 1   
    56    27    62 1   
    57    27    76 1   
    58    28    29 1   
    59    28    31 1   
    60    28    63 1   
    61    29    30 1   
    62    29    64 1   
    63    29    65 1   
    64    30    35 1   
    65    30    66 1   
    66    30    67 1   
    67    31    32 1   
    68    31    68 1   
    69    31    69 1   
    70    32    35 1   
    71    32    70 1   
    72    32    71 1   
    73    33    72 1   
    74    35    73 1   
    75    38    74 1   
    76    39    74 1   
    77    53    75 1   
    78    54    75 1   
    79    57    76 1   
    80    58    76 1   
@<TRIPOS>SUBSTRUCTURE
     1 MWW         1 TEMP              0 ****  ****    0 ROOT
