@<TRIPOS>MOLECULE
MWX
   47    49     1     0     0
SMALL
abcg2


@<TRIPOS>ATOM
      1 C01         54.0420   112.7240    71.8060 c5         1 MWX      -0.069400
      2 C02         54.8950   113.8000    72.4820 c5         1 MWX      -0.113700
      3 C03         54.3990   113.7900    73.9160 c          1 MWX       0.559000
      4 C06         52.7710   112.6420    72.6630 c5         1 MWX       0.106700
      5 C07         52.1250   111.2740    72.7420 c3         1 MWX       0.149600
      6 C09         52.6270   109.1010    73.5550 ca         1 MWX       0.165100
      7 C10         51.3680   108.6060    73.2200 ca         1 MWX      -0.178500
      8 C11         51.0300   107.3010    73.5490 ca         1 MWX      -0.058500
      9 C12         51.9170   106.4550    74.2080 cp         1 MWX      -0.098000
     10 C13         53.1800   106.9660    74.5250 ca         1 MWX      -0.058500
     11 C14         53.5320   108.2630    74.2090 ca         1 MWX      -0.178500
     12 C15         51.5360   105.0750    74.5610 cp         1 MWX       0.008000
     13 C16         50.2340   104.7670    74.9560 ca         1 MWX      -0.118500
     14 C17         49.8720   103.4720    75.2890 ca         1 MWX      -0.077500
     15 C18         50.8030   102.4360    75.2410 ca         1 MWX      -0.156900
     16 C19         52.1030   102.7370    74.8430 ca         1 MWX      -0.077500
     17 C20         52.4650   104.0310    74.5130 ca         1 MWX      -0.118500
     18 C21         50.4390   101.0330    75.5800 ce         1 MWX       0.662800
     19 C24         54.7070   115.1970    71.8940 c3         1 MWX      -0.209400
     20 C25         55.3020   115.4020    70.4820 c          1 MWX       0.719000
     21 N05         53.2340   113.1160    73.9490 ns         1 MWX      -0.517900
     22 N22         51.1310   100.0830    75.0780 n2         1 MWX      -0.830100
     23 N23         49.3340   100.8910    76.3730 nv         1 MWX      -1.075200
     24 O04         54.9350   114.3280    74.8720 o          1 MWX      -0.583000
     25 O08         53.0450   110.3530    73.2920 os         1 MWX      -0.320100
     26 O26         54.9620   116.4570    69.9090 o          1 MWX      -0.735000
     27 O27         56.0800   114.5310    70.0490 o          1 MWX      -0.735000
     28 H1          54.5660   111.7680    71.8180 hc         1 MWX       0.065700
     29 H2          53.8090   112.9560    70.7690 hc         1 MWX       0.065700
     30 H3          55.9560   113.5470    72.4600 hc         1 MWX       0.098700
     31 H4          51.9990   113.3110    72.2620 h1         1 MWX       0.049700
     32 H5          51.2220   111.3270    73.3610 h1         1 MWX       0.033200
     33 H6          51.8170   110.9720    71.7340 h1         1 MWX       0.033200
     34 H7          50.6420   109.2130    72.6960 ha         1 MWX       0.126500
     35 H8          50.0510   106.9390    73.2600 ha         1 MWX       0.109500
     36 H9          53.8960   106.3490    75.0530 ha         1 MWX       0.109500
     37 H10         54.5100   108.6420    74.4790 ha         1 MWX       0.126500
     38 H11         49.4890   105.5500    75.0220 ha         1 MWX       0.117500
     39 H12         48.8460   103.2810    75.5760 ha         1 MWX       0.122000
     40 H13         52.8390   101.9460    74.7900 ha         1 MWX       0.122000
     41 H14         53.4820   104.2260    74.1970 ha         1 MWX       0.117500
     42 H15         55.1760   115.9330    72.5560 hc         1 MWX       0.030700
     43 H16         53.6430   115.4590    71.8750 hc         1 MWX       0.030700
     44 H17         52.6500   113.1050    74.7720 hn         1 MWX       0.302500
     45 H18         50.8060    99.1770    75.4050 hn         1 MWX       0.365400
     46 H19         49.1180   101.6260    77.0270 hn         1 MWX       0.457500
     47 H20         49.1440    99.9680    76.7330 hn         1 MWX       0.457500
@<TRIPOS>BOND
     1     1     2 1   
     2     1     4 1   
     3     1    28 1   
     4     1    29 1   
     5     2     3 1   
     6     2    19 1   
     7     2    30 1   
     8     3    21 1   
     9     3    24 2   
    10     4     5 1   
    11     4    21 1   
    12     4    31 1   
    13     5    25 1   
    14     5    32 1   
    15     5    33 1   
    16     6     7 ar  
    17     6    11 ar  
    18     6    25 1   
    19     7     8 ar  
    20     7    34 1   
    21     8     9 ar  
    22     8    35 1   
    23     9    10 ar  
    24     9    12 1   
    25    10    11 ar  
    26    10    36 1   
    27    11    37 1   
    28    12    13 ar  
    29    12    17 ar  
    30    13    14 ar  
    31    13    38 1   
    32    14    15 ar  
    33    14    39 1   
    34    15    16 ar  
    35    15    18 1   
    36    16    17 ar  
    37    16    40 1   
    38    17    41 1   
    39    18    22 2   
    40    18    23 1   
    41    19    20 1   
    42    19    42 1   
    43    19    43 1   
    44    20    26 1   
    45    20    27 1   
    46    21    44 1   
    47    22    45 1   
    48    23    46 1   
    49    23    47 1   
@<TRIPOS>SUBSTRUCTURE
     1 MWX         1 TEMP              0 ****  ****    0 ROOT
