@<TRIPOS>MOLECULE
MWX
   47    49     1     0     0
SMALL
No Charge or Current Charge


@<TRIPOS>ATOM
      1 C01         54.1970   112.7080    71.8720 c5         1 MWX      -0.069400
      2 C02         54.9670   113.9570    72.3890 c5         1 MWX      -0.113700
      3 C03         54.5830   113.9930    73.8750 c          1 MWX       0.559000
      4 C06         52.8920   112.7610    72.7260 c5         1 MWX       0.106700
      5 C07         52.1370   111.4100    72.8500 c3         1 MWX       0.149600
      6 C09         52.5860   109.1560    73.7510 ca         1 MWX       0.165100
      7 C10         51.3120   108.6720    73.3870 ca         1 MWX      -0.178500
      8 C11         50.9590   107.3400    73.6670 ca         1 MWX      -0.058500
      9 C12         51.8630   106.4590    74.3130 cp         1 MWX      -0.098000
     10 C13         53.1380   106.9660    74.6690 ca         1 MWX      -0.058500
     11 C14         53.4920   108.2980    74.3910 ca         1 MWX      -0.178500
     12 C15         51.4850   105.0400    74.6100 cp         1 MWX       0.008000
     13 C16         50.1580   104.6910    74.9560 ca         1 MWX      -0.118500
     14 C17         49.8000   103.3600    75.2360 ca         1 MWX      -0.077500
     15 C18         50.7650   102.3270    75.1900 ca         1 MWX      -0.156900
     16 C19         52.0870   102.6660    74.8210 ca         1 MWX      -0.077500
     17 C20         52.4390   103.9980    74.5450 ca         1 MWX      -0.118500
     18 C21         50.3940   100.8960    75.4520 ce         1 MWX       0.662800
     19 C24         54.6070   115.3090    71.6890 c3         1 MWX      -0.209400
     20 C25         55.1610   115.3630    70.2540 c          1 MWX       0.719000
     21 N05         53.4170   113.2860    73.9900 ns         1 MWX      -0.517900
     22 N22         51.1090    99.9110    75.0910 n2         1 MWX      -0.830100
     23 N23         49.2980   100.6500    76.2030 nv         1 MWX      -1.075200
     24 O04         55.2360   114.3740    74.8330 o          1 MWX      -0.583000
     25 O08         52.9900   110.4510    73.5040 os         1 MWX      -0.320100
     26 O26         54.4380   114.9960    69.3400 o          1 MWX      -0.735000
     27 O27         56.3150   115.7300    70.0980 o          1 MWX      -0.735000
     28 H1          54.7700   111.7970    72.0800 hc         1 MWX       0.065700
     29 H2          54.0000   112.7220    70.7950 hc         1 MWX       0.065700
     30 H3          56.0550   113.8490    72.3210 hc         1 MWX       0.098700
     31 H4          52.1910   113.4840    72.2860 h1         1 MWX       0.049700
     32 H5          51.2200   111.5690    73.4320 h1         1 MWX       0.033200
     33 H6          51.8580   111.0630    71.8460 h1         1 MWX       0.033200
     34 H7          50.5880   109.3080    72.8870 ha         1 MWX       0.126500
     35 H8          49.9770   106.9840    73.3650 ha         1 MWX       0.109500
     36 H9          53.8560   106.3280    75.1780 ha         1 MWX       0.109500
     37 H10         54.4730   108.6680    74.6760 ha         1 MWX       0.126500
     38 H11         49.3940   105.4610    75.0190 ha         1 MWX       0.117500
     39 H12         48.7630   103.1420    75.4790 ha         1 MWX       0.122000
     40 H13         52.8510   101.8950    74.7520 ha         1 MWX       0.122000
     41 H14         53.4650   104.2190    74.2600 ha         1 MWX       0.117500
     42 H15         55.0920   116.0890    72.2880 hc         1 MWX       0.030700
     43 H16         53.5140   115.3960    71.6770 hc         1 MWX       0.030700
     44 H17         53.0410   113.1030    74.9130 hn         1 MWX       0.302500
     45 H18         50.5540    99.0570    75.2130 hn         1 MWX       0.365400
     46 H19         48.9470   101.4500    76.7150 hn         1 MWX       0.457500
     47 H20         49.2950    99.7760    76.7150 hn         1 MWX       0.457500
@<TRIPOS>BOND
     1     1     2 1   
     2     1     4 1   
     3     1    28 1   
     4     1    29 1   
     5     2     3 1   
     6     2    19 1   
     7     2    30 1   
     8     3    21 1   
     9     3    24 2   
    10     4     5 1   
    11     4    21 1   
    12     4    31 1   
    13     5    25 1   
    14     5    32 1   
    15     5    33 1   
    16     6     7 ar  
    17     6    11 ar  
    18     6    25 1   
    19     7     8 ar  
    20     7    34 1   
    21     8     9 ar  
    22     8    35 1   
    23     9    10 ar  
    24     9    12 1   
    25    10    11 ar  
    26    10    36 1   
    27    11    37 1   
    28    12    13 ar  
    29    12    17 ar  
    30    13    14 ar  
    31    13    38 1   
    32    14    15 ar  
    33    14    39 1   
    34    15    16 ar  
    35    15    18 1   
    36    16    17 ar  
    37    16    40 1   
    38    17    41 1   
    39    18    22 2   
    40    18    23 1   
    41    19    20 1   
    42    19    42 1   
    43    19    43 1   
    44    20    26 1   
    45    20    27 1   
    46    21    44 1   
    47    22    45 1   
    48    23    46 1   
    49    23    47 1   
@<TRIPOS>SUBSTRUCTURE
     1 MWX         1 TEMP              0 ****  ****    0 ROOT
