@<TRIPOS>MOLECULE
MWY
   71    74     1     0     0
SMALL
No Charge or Current Charge


@<TRIPOS>ATOM
      1 C01         -0.3710     3.7220     0.0840 c3         1 MWY      -0.085100
      2 C02          0.9900     3.0990     0.4880 c3         1 MWY      -0.071400
      3 C03          1.8220     2.3910    -0.6490 c3         1 MWY      -0.029000
      4 C04          1.0540     1.1320    -1.2280 c3         1 MWY      -0.094400
      5 C05          0.7500    -0.0920    -0.2950 c3         1 MWY       0.183300
      6 C06          1.6400    -1.4060    -0.4840 c6         1 MWY      -0.004000
      7 C07          1.5080    -2.3550     0.7880 c6         1 MWY      -0.056700
      8 C08          2.1880    -1.7650     2.0640 c6         1 MWY      -0.078400
      9 C09          3.6790    -1.4120     1.8350 c6         1 MWY      -0.071400
     10 C10          3.9010    -0.3990     0.6550 c5         1 MWY      -0.035000
     11 C11          3.1920    -1.0290    -0.6220 c5         1 MWY      -0.159700
     12 C12          4.1770    -2.1400    -1.0260 c          1 MWY       0.579100
     13 C14          5.4990    -1.3900    -1.0390 c5         1 MWY      -0.197400
     14 C15          5.4190    -0.4190     0.1840 c5         1 MWY      -0.074400
     15 C16          3.4660     1.0850     1.0940 c3         1 MWY      -0.082700
     16 C17          3.3010     2.0740    -0.1380 c3         1 MWY       0.182300
     17 C19          4.3520     1.6650     2.2490 c3         1 MWY      -0.088100
     18 C20          0.0680    -2.8310     1.1470 c3         1 MWY      -0.084100
     19 C21          1.1050    -2.1700    -1.7910 c3         1 MWY      -0.090100
     20 C25         -3.0010    -0.3230    -0.2850 c3         1 MWY      -0.058400
     21 C27         -5.8390    -0.1390    -0.2240 cc         1 MWY       0.640300
     22 C29         -7.7890    -0.5220    -0.7060 cd         1 MWY       0.672400
     23 C33          1.9530     3.3780    -1.8580 c3         1 MWY      -0.081100
     24 N28         -7.1100     0.2270     0.0950 nc         1 MWY      -0.736000
     25 N30         -6.9870    -1.3110    -1.4840 na         1 MWY      -0.242700
     26 N31         -5.6690    -1.0590    -1.1640 nd         1 MWY      -0.558800
     27 N32         -9.1200    -0.5020    -0.7530 nv         1 MWY      -1.038900
     28 O13          4.0730    -3.3540    -0.9100 o          1 MWY      -0.516100
     29 O18          3.9920     3.3100     0.1180 oh         1 MWY      -0.658000
     30 O22         -0.6310    -0.4370    -0.5420 os         1 MWY      -0.449100
     31 O24         -1.4450     0.8270     1.2000 o          1 MWY      -0.479000
     32 S26         -4.4170     0.5510     0.5510 ss         1 MWY      -0.217300
     33 H1          -0.8840     4.1020     0.9750 hc         1 MWY       0.031367
     34 H2          -0.2330     4.5670    -0.6010 hc         1 MWY       0.031367
     35 H3          -1.0320     2.9930    -0.3940 hc         1 MWY       0.031367
     36 H4           1.5910     3.9030     0.9280 hc         1 MWY       0.052200
     37 H5           0.8010     2.3990     1.3070 hc         1 MWY       0.052200
     38 H6           0.1000     1.4900    -1.6300 hc         1 MWY       0.053700
     39 H7           1.5720     0.7800    -2.1250 hc         1 MWY       0.053700
     40 H8           0.8490     0.2180     0.7450 h1         1 MWY       0.077700
     41 H9           2.0300    -3.2920     0.5570 hc         1 MWY       0.055700
     42 H10          1.6370    -0.8930     2.4390 hc         1 MWY       0.046200
     43 H11          2.1330    -2.5060     2.8740 hc         1 MWY       0.046200
     44 H12          4.1200    -1.0530     2.7710 hc         1 MWY       0.042700
     45 H13          4.2200    -2.3470     1.6340 hc         1 MWY       0.042700
     46 H14          3.2780    -0.3180    -1.4440 hc         1 MWY       0.072700
     47 H15          6.3530    -2.0750    -1.0080 hc         1 MWY       0.073700
     48 H16          5.5340    -0.7730    -1.9440 hc         1 MWY       0.073700
     49 H17          5.7790     0.5720    -0.1120 hc         1 MWY       0.048200
     50 H18          6.0790    -0.7500     0.9930 hc         1 MWY       0.048200
     51 H19          2.4950     1.0210     1.5780 hc         1 MWY       0.068700
     52 H20          3.8260     1.6230    -0.9870 h1         1 MWY       0.021700
     53 H21          5.3980     1.7850     1.9430 hc         1 MWY       0.036700
     54 H22          3.9740     2.6400     2.5790 hc         1 MWY       0.036700
     55 H23          4.3350     1.0300     3.1400 hc         1 MWY       0.036700
     56 H24         -0.4650    -3.2510     0.2870 hc         1 MWY       0.035367
     57 H25          0.1040    -3.6190     1.9080 hc         1 MWY       0.035367
     58 H26         -0.5380    -2.0210     1.5660 hc         1 MWY       0.035367
     59 H27          1.6570    -3.1000    -1.9650 hc         1 MWY       0.046700
     60 H28          0.0480    -2.4500    -1.7390 hc         1 MWY       0.046700
     61 H29          1.2300    -1.5520    -2.6870 hc         1 MWY       0.046700
     62 H30         -3.0310    -0.1260    -1.3630 h1         1 MWY       0.102200
     63 H31         -3.0850    -1.4050    -0.1300 h1         1 MWY       0.102200
     64 H32          2.3060     4.3670    -1.5400 hc         1 MWY       0.036700
     65 H33          2.6600     2.9930    -2.6030 hc         1 MWY       0.036700
     66 H34          0.9940     3.5260    -2.3690 hc         1 MWY       0.036700
     67 H36         -9.5640    -0.8370    -1.6000 hn         1 MWY       0.477500
     68 H37         -9.5650     0.2830    -0.2920 hn         1 MWY       0.477500
     69 H38          4.8980     3.0730     0.4020 ho         1 MWY       0.440000
     70 H35         -7.2870    -1.9840    -2.1810 hn         1 MWY       0.374000
     71 C23         -1.6270     0.1110     0.2250 c          1 MWY       0.613100
@<TRIPOS>BOND
     1     1     2 1   
     2     1    33 1   
     3     1    34 1   
     4     1    35 1   
     5     2     3 1   
     6     2    36 1   
     7     2    37 1   
     8     3     4 1   
     9     3    16 1   
    10     3    23 1   
    11     4     5 1   
    12     4    38 1   
    13     4    39 1   
    14     5     6 1   
    15     5    30 1   
    16     5    40 1   
    17     6     7 1   
    18     6    11 1   
    19     6    19 1   
    20     7     8 1   
    21     7    18 1   
    22     7    41 1   
    23     8     9 1   
    24     8    42 1   
    25     8    43 1   
    26     9    10 1   
    27     9    44 1   
    28     9    45 1   
    29    10    11 1   
    30    10    14 1   
    31    10    15 1   
    32    11    12 1   
    33    11    46 1   
    34    12    13 1   
    35    12    28 2   
    36    13    14 1   
    37    13    47 1   
    38    13    48 1   
    39    14    49 1   
    40    14    50 1   
    41    15    16 1   
    42    15    17 1   
    43    15    51 1   
    44    16    29 1   
    45    16    52 1   
    46    17    53 1   
    47    17    54 1   
    48    17    55 1   
    49    18    56 1   
    50    18    57 1   
    51    18    58 1   
    52    19    59 1   
    53    19    60 1   
    54    19    61 1   
    55    20    32 1   
    56    20    62 1   
    57    20    63 1   
    58    20    71 1   
    59    21    24 1   
    60    21    26 2   
    61    21    32 1   
    62    22    24 2   
    63    22    25 1   
    64    22    27 1   
    65    23    64 1   
    66    23    65 1   
    67    23    66 1   
    68    25    26 1   
    69    25    70 1   
    70    27    67 1   
    71    27    68 1   
    72    29    69 1   
    73    30    71 1   
    74    31    71 2   
@<TRIPOS>SUBSTRUCTURE
     1 MWY         1 TEMP              0 ****  ****    0 ROOT
