@<TRIPOS>MOLECULE
MWY
   71    74     1     0     0
SMALL
abcg2


@<TRIPOS>ATOM
      1 C01         -0.4090     3.5840    -0.0650 c3         1 MWY      -0.085100
      2 C02          0.9320     3.0240     0.3960 c3         1 MWY      -0.071400
      3 C03          1.7850     2.3640    -0.7050 c3         1 MWY      -0.029000
      4 C04          1.1080     1.0960    -1.2670 c3         1 MWY      -0.094400
      5 C05          0.7990    -0.0780    -0.3250 c3         1 MWY       0.183300
      6 C06          1.6590    -1.3540    -0.5460 c6         1 MWY      -0.004000
      7 C07          1.5170    -2.3560     0.6320 c6         1 MWY      -0.056700
      8 C08          2.0760    -1.7760     1.9320 c6         1 MWY      -0.078400
      9 C09          3.5210    -1.3170     1.8180 c6         1 MWY      -0.071400
     10 C10          3.7760    -0.3180     0.6740 c5         1 MWY      -0.035000
     11 C11          3.1520    -0.9410    -0.6040 c5         1 MWY      -0.159700
     12 C12          4.1780    -2.0150    -0.9640 c          1 MWY       0.579100
     13 C14          5.5350    -1.5730    -0.4630 c5         1 MWY      -0.197400
     14 C15          5.2830    -0.3090     0.3470 c5         1 MWY      -0.074400
     15 C16          3.2960     1.1110     1.0460 c3         1 MWY      -0.082700
     16 C17          3.2150     2.0660    -0.1890 c3         1 MWY       0.182300
     17 C19          4.1540     1.7030     2.1700 c3         1 MWY      -0.088100
     18 C20          0.1240    -2.9290     0.8920 c3         1 MWY      -0.084100
     19 C21          1.2400    -1.9970    -1.8760 c3         1 MWY      -0.090100
     20 C25         -2.8810    -0.4850    -0.2350 c3         1 MWY      -0.058400
     21 C27         -5.5720    -0.2440    -0.0330 cc         1 MWY       0.640300
     22 C29         -7.6070    -0.3920    -0.4670 cd         1 MWY       0.672400
     23 C33          1.9140     3.3170    -1.9050 c3         1 MWY      -0.081100
     24 N28         -6.7820     0.1760     0.3960 nc         1 MWY      -0.736000
     25 N30         -6.9050    -1.1070    -1.3530 na         1 MWY      -0.242700
     26 N31         -5.5780    -1.0200    -1.0830 nd         1 MWY      -0.558800
     27 N32         -8.9590    -0.3250    -0.4330 nv         1 MWY      -1.038900
     28 O13          4.0020    -3.0480    -1.5640 o          1 MWY      -0.516100
     29 O18          3.8240     3.3200     0.0510 oh         1 MWY      -0.658000
     30 O22         -0.5830    -0.4440    -0.5540 os         1 MWY      -0.449100
     31 O24         -1.3670     0.5400     1.3100 o          1 MWY      -0.479000
     32 S26         -4.1390     0.2680     0.8220 ss         1 MWY      -0.217300
     33 H1          -0.9840     3.9370     0.7920 hc         1 MWY       0.031367
     34 H2          -0.2850     4.4290    -0.7420 hc         1 MWY       0.031367
     35 H3          -1.0230     2.8430    -0.5780 hc         1 MWY       0.031367
     36 H4           1.5070     3.8400     0.8380 hc         1 MWY       0.052200
     37 H5           0.7520     2.3140     1.2060 hc         1 MWY       0.052200
     38 H6           0.1600     1.4170    -1.7020 hc         1 MWY       0.053700
     39 H7           1.6890     0.7520    -2.1280 hc         1 MWY       0.053700
     40 H8           0.8750     0.2390     0.7110 h1         1 MWY       0.077700
     41 H9           2.1460    -3.2090     0.3530 hc         1 MWY       0.055700
     42 H10          1.4360    -0.9580     2.2800 hc         1 MWY       0.046200
     43 H11          2.0100    -2.5400     2.7120 hc         1 MWY       0.046200
     44 H12          3.8530    -0.9000     2.7710 hc         1 MWY       0.042700
     45 H13          4.1470    -2.2050     1.6700 hc         1 MWY       0.042700
     46 H14          3.2940    -0.2320    -1.4330 hc         1 MWY       0.072700
     47 H15          5.9690    -2.3790     0.1330 hc         1 MWY       0.073700
     48 H16          6.2080    -1.4220    -1.3100 hc         1 MWY       0.073700
     49 H17          5.5430     0.5770    -0.2390 hc         1 MWY       0.048200
     50 H18          5.8880    -0.2770     1.2540 hc         1 MWY       0.048200
     51 H19          2.3030     1.0290     1.4890 hc         1 MWY       0.068700
     52 H20          3.7430     1.5930    -1.0290 h1         1 MWY       0.021700
     53 H21          5.1870     1.8890     1.8750 hc         1 MWY       0.036700
     54 H22          3.7340     2.6440     2.5210 hc         1 MWY       0.036700
     55 H23          4.1880     1.0310     3.0260 hc         1 MWY       0.036700
     56 H24         -0.3890    -3.2420    -0.0170 hc         1 MWY       0.035367
     57 H25          0.2160    -3.8110     1.5290 hc         1 MWY       0.035367
     58 H26         -0.5180    -2.2310     1.4290 hc         1 MWY       0.035367
     59 H27          1.7810    -2.9180    -2.0590 hc         1 MWY       0.046700
     60 H28          0.1790    -2.2350    -1.8930 hc         1 MWY       0.046700
     61 H29          1.4370    -1.3280    -2.7160 hc         1 MWY       0.046700
     62 H30         -3.0110    -0.1710    -1.2710 h1         1 MWY       0.102200
     63 H31         -2.9580    -1.5750    -0.2130 h1         1 MWY       0.102200
     64 H32          2.2160     4.3190    -1.6050 hc         1 MWY       0.036700
     65 H33          2.6490     2.9420    -2.6210 hc         1 MWY       0.036700
     66 H34          0.9660     3.4050    -2.4370 hc         1 MWY       0.036700
     67 H36         -9.4510    -0.5280    -1.2880 hn         1 MWY       0.477500
     68 H37         -9.3340     0.4650     0.0650 hn         1 MWY       0.477500
     69 H38          4.7740     3.1930     0.1200 ho         1 MWY       0.440000
     70 H35         -7.2350    -1.6490    -2.1360 hn         1 MWY       0.374000
     71 C23         -1.5290    -0.0590     0.2770 c          1 MWY       0.613100
@<TRIPOS>BOND
     1     1     2 1   
     2     1    33 1   
     3     1    34 1   
     4     1    35 1   
     5     2     3 1   
     6     2    36 1   
     7     2    37 1   
     8     3     4 1   
     9     3    16 1   
    10     3    23 1   
    11     4     5 1   
    12     4    38 1   
    13     4    39 1   
    14     5     6 1   
    15     5    30 1   
    16     5    40 1   
    17     6     7 1   
    18     6    11 1   
    19     6    19 1   
    20     7     8 1   
    21     7    18 1   
    22     7    41 1   
    23     8     9 1   
    24     8    42 1   
    25     8    43 1   
    26     9    10 1   
    27     9    44 1   
    28     9    45 1   
    29    10    11 1   
    30    10    14 1   
    31    10    15 1   
    32    11    12 1   
    33    11    46 1   
    34    12    13 1   
    35    12    28 2   
    36    13    14 1   
    37    13    47 1   
    38    13    48 1   
    39    14    49 1   
    40    14    50 1   
    41    15    16 1   
    42    15    17 1   
    43    15    51 1   
    44    16    29 1   
    45    16    52 1   
    46    17    53 1   
    47    17    54 1   
    48    17    55 1   
    49    18    56 1   
    50    18    57 1   
    51    18    58 1   
    52    19    59 1   
    53    19    60 1   
    54    19    61 1   
    55    20    32 1   
    56    20    62 1   
    57    20    63 1   
    58    20    71 1   
    59    21    24 1   
    60    21    26 2   
    61    21    32 1   
    62    22    24 2   
    63    22    25 1   
    64    22    27 1   
    65    23    64 1   
    66    23    65 1   
    67    23    66 1   
    68    25    26 1   
    69    25    70 1   
    70    27    67 1   
    71    27    68 1   
    72    29    69 1   
    73    30    71 1   
    74    31    71 2   
@<TRIPOS>SUBSTRUCTURE
     1 MWY         1 TEMP              0 ****  ****    0 ROOT
