@<TRIPOS>MOLECULE
MWZ
   80    84     1     0     0
SMALL
abcg2


@<TRIPOS>ATOM
      1 C12         -0.3520    24.2070   -18.6020 c6         1 MWZ      -0.109900
      2 C11         -1.3120    25.0760   -17.7870 c6         1 MWZ       0.146300
      3 CAD         10.6750    29.1480   -17.9700 ca         1 MWZ      -0.105000
      4 CAE         10.3260    28.1260   -17.0920 ca         1 MWZ      -0.107000
      5 CAF         10.0540    29.2270   -19.2120 ca         1 MWZ      -0.107000
      6 CAG          9.3610    27.1920   -17.4560 ca         1 MWZ      -0.106500
      7 CAH          9.0890    28.2910   -19.5710 ca         1 MWZ      -0.106500
      8 CAI          3.2670    25.1590   -24.1420 ca         1 MWZ      -0.106000
      9 CAJ          3.7590    25.3230   -22.8590 ca         1 MWZ      -0.034000
     10 CAK          4.5440    24.8860   -18.1200 cc         1 MWZ      -0.266000
     11 CAL          1.5710    23.6600   -23.2620 ca         1 MWZ      -0.195000
     12 CAR          0.4110    22.3610   -21.0420 c3         1 MWZ       0.168600
     13 CAT          7.6480    26.2820   -19.0680 c3         1 MWZ      -0.024100
     14 CAW         -0.0290    21.8900   -19.6680 c3         1 MWZ      -0.077400
     15 NAX          4.7430    25.7670   -20.2320 nd         1 MWZ      -0.642000
     16 CBD          8.7290    27.2620   -18.6990 ca         1 MWZ      -0.090300
     17 CBE          5.1750    25.7850   -18.9340 cd         1 MWZ       0.302300
     18 CBF          2.1760    24.3220   -24.3200 ca         1 MWZ      -0.035200
     19 CBH          2.0800    23.8300   -21.9750 ca         1 MWZ       0.180100
     20 CBI          3.1960    24.6710   -21.7570 ca         1 MWZ      -0.094500
     21 CBJ          3.7910    24.8850   -20.4370 cc         1 MWZ       0.442900
     22 OBA          1.5510    23.2330   -20.8940 os         1 MWZ      -0.344100
     23 SBB          3.3650    24.0030   -18.9940 ss         1 MWZ       0.059600
     24 C02          0.8440    23.2560   -27.4670 cc         1 MWZ      -0.105300
     25 N02          1.6610    24.1120   -25.6370 na         1 MWZ       0.318000
     26 N03          1.1510    24.5780   -27.6000 na         1 MWZ       0.180800
     27 C04         -1.2840    22.5560   -28.6150 c3         1 MWZ      -0.068400
     28 C05         -1.8640    21.7200   -29.7530 c3         1 MWZ      -0.072400
     29 C06         -3.3810    21.8110   -29.8710 c3         1 MWZ       0.150800
     30 C07         -0.9640    22.8370   -18.9100 c6         1 MWZ      -0.060700
     31 C08         -1.4420    22.1880   -17.6050 c6         1 MWZ      -0.109900
     32 C09         -2.3630    23.1190   -16.8150 c6         1 MWZ       0.146300
     33 C10          1.0010    25.4120   -28.7890 c3         1 MWZ       0.049900
     34 C01          1.1810    22.9590   -26.1710 cd         1 MWZ      -0.160000
     35 N01          1.6430    25.1040   -26.5030 n2         1 MWZ      -0.274600
     36 N05         -1.7840    24.4420   -16.5510 n7         1 MWZ      -0.836400
     37 H1           0.5720    24.0660   -18.0320 hc         1 MWZ       0.044700
     38 H2          -0.0760    24.7250   -19.5230 hc         1 MWZ       0.044700
     39 H3          -0.8370    26.0240   -17.5290 h1         1 MWZ       0.057200
     40 H4          -2.1930    25.3130   -18.3950 h1         1 MWZ       0.057200
     41 H6          10.8070    28.0540   -16.1240 ha         1 MWZ       0.115500
     42 H7          10.3230    30.0170   -19.9040 ha         1 MWZ       0.115500
     43 H8           9.0950    26.3970   -16.7690 ha         1 MWZ       0.108500
     44 H9           8.6090    28.3570   -20.5410 ha         1 MWZ       0.108500
     45 H10          3.7310    25.6490   -24.9840 ha         1 MWZ       0.144000
     46 H11          4.6160    25.9590   -22.6930 ha         1 MWZ       0.169000
     47 H12          4.7040    24.7180   -17.0670 h4         1 MWZ       0.171000
     48 H13          0.7090    23.0360   -23.4370 ha         1 MWZ       0.133000
     49 H14         -0.3920    22.9060   -21.5440 h1         1 MWZ       0.040200
     50 H15          0.7090    21.5170   -21.6690 h1         1 MWZ       0.040200
     51 H16          7.8820    25.2950   -18.6630 hc         1 MWZ       0.051200
     52 H17          7.5880    26.1850   -20.1540 hc         1 MWZ       0.051200
     53 H20         -0.5500    20.9380   -19.8090 hc         1 MWZ       0.064200
     54 H21          0.8590    21.6720   -19.0690 hc         1 MWZ       0.064200
     55 H24         -1.5550    23.6060   -28.7610 hc         1 MWZ       0.057200
     56 H25         -1.7150    22.2470   -27.6620 hc         1 MWZ       0.057200
     57 H26         -5.0550    21.3510   -28.7810 hn         1 MWZ       0.403000
     58 H27         -3.8780    20.2440   -28.6540 hn         1 MWZ       0.403000
     59 H29         -1.5770    20.6710   -29.6190 hc         1 MWZ       0.045700
     60 H30         -1.4220    22.0450   -30.7000 hc         1 MWZ       0.045700
     61 H31         -3.6890    21.3210   -30.8040 h1         1 MWZ       0.040200
     62 H32         -3.6770    22.8610   -29.9510 h1         1 MWZ       0.040200
     63 H33         -1.8480    23.0020   -19.5410 hc         1 MWZ       0.045700
     64 H34         -1.9590    21.2480   -17.8200 hc         1 MWZ       0.044700
     65 H35         -0.5690    21.9400   -16.9900 hc         1 MWZ       0.044700
     66 H36         -3.2910    23.2710   -17.3780 h1         1 MWZ       0.057200
     67 H37         -2.6370    22.6650   -15.8610 h1         1 MWZ       0.057200
     68 H38          1.3760    26.4010   -28.5450 h1         1 MWZ       0.098033
     69 H39          1.5790    24.9770   -29.6010 h1         1 MWZ       0.098033
     70 H40         -0.0510    25.4610   -29.0610 h1         1 MWZ       0.098033
     71 H41          1.1430    22.0340   -25.6240 h4         1 MWZ       0.215000
     72 H42         -0.9910    24.3270   -15.9260 hn         1 MWZ       0.402000
     73 C03          0.2460    22.4210   -28.5400 c3         1 MWZ      -0.033100
     74 CAU          6.2700    26.7210   -18.5300 c3         1 MWZ      -0.105700
     75 H5          11.4280    29.8750   -17.6890 ha         1 MWZ       0.117000
     76 N04         -4.0500    21.2440   -28.6900 n8         1 MWZ      -1.014200
     77 H18          6.0450    27.7220   -18.9090 hc         1 MWZ       0.063700
     78 H19          6.3110    26.7850   -17.4420 hc         1 MWZ       0.063700
     79 H22          0.5130    21.3820   -28.3440 hc         1 MWZ       0.082200
     80 H23          0.6930    22.6920   -29.4990 hc         1 MWZ       0.082200
@<TRIPOS>BOND
     1     1     2 1   
     2     1    30 1   
     3     1    37 1   
     4     1    38 1   
     5     2    36 1   
     6     2    39 1   
     7     2    40 1   
     8     3     4 ar  
     9     3     5 ar  
    10     3    75 1   
    11     4     6 ar  
    12     4    41 1   
    13     5     7 ar  
    14     5    42 1   
    15     6    16 ar  
    16     6    43 1   
    17     7    16 ar  
    18     7    44 1   
    19     8     9 ar  
    20     8    18 ar  
    21     8    45 1   
    22     9    20 ar  
    23     9    46 1   
    24    10    17 2   
    25    10    23 1   
    26    10    47 1   
    27    11    18 ar  
    28    11    19 ar  
    29    11    48 1   
    30    12    14 1   
    31    12    22 1   
    32    12    49 1   
    33    12    50 1   
    34    13    16 1   
    35    13    51 1   
    36    13    52 1   
    37    13    74 1   
    38    14    30 1   
    39    14    53 1   
    40    14    54 1   
    41    15    17 1   
    42    15    21 2   
    43    17    74 1   
    44    18    25 1   
    45    19    20 ar  
    46    19    22 1   
    47    20    21 1   
    48    21    23 1   
    49    24    26 1   
    50    24    34 2   
    51    24    73 1   
    52    25    34 1   
    53    25    35 2   
    54    26    33 1   
    55    26    35 1   
    56    27    28 1   
    57    27    55 1   
    58    27    56 1   
    59    27    73 1   
    60    28    29 1   
    61    28    59 1   
    62    28    60 1   
    63    29    61 1   
    64    29    62 1   
    65    29    76 1   
    66    30    31 1   
    67    30    63 1   
    68    31    32 1   
    69    31    64 1   
    70    31    65 1   
    71    32    36 1   
    72    32    66 1   
    73    32    67 1   
    74    33    68 1   
    75    33    69 1   
    76    33    70 1   
    77    34    71 1   
    78    36    72 1   
    79    57    76 1   
    80    58    76 1   
    81    73    79 1   
    82    73    80 1   
    83    74    77 1   
    84    74    78 1   
@<TRIPOS>SUBSTRUCTURE
     1 MWZ         1 TEMP              0 ****  ****    0 ROOT
