@<TRIPOS>MOLECULE
MWZ
   80    84     1     0     0
SMALL
No Charge or Current Charge


@<TRIPOS>ATOM
      1 C12          0.5040    24.4080   -18.2400 c6         1 MWZ      -0.109900
      2 C11          0.2580    25.4700   -17.1410 c6         1 MWZ       0.146300
      3 CAD          9.9800    29.1520   -17.2610 ca         1 MWZ      -0.105000
      4 CAE          9.9560    27.8360   -16.7690 ca         1 MWZ      -0.107000
      5 CAF          9.1830    29.5030   -18.3640 ca         1 MWZ      -0.107000
      6 CAG          9.1360    26.8710   -17.3810 ca         1 MWZ      -0.106500
      7 CAH          8.3640    28.5380   -18.9760 ca         1 MWZ      -0.106500
      8 CAI          3.0080    24.9440   -24.3990 ca         1 MWZ      -0.106000
      9 CAJ          3.6690    24.9230   -23.1600 ca         1 MWZ      -0.034000
     10 CAK          4.8590    23.8810   -18.6280 cc         1 MWZ      -0.266000
     11 CAL          1.1150    23.7910   -23.4040 ca         1 MWZ      -0.195000
     12 CAR         -0.2120    22.8520   -20.9990 c3         1 MWZ       0.168600
     13 CAT          7.4450    26.1730   -19.1480 c3         1 MWZ      -0.024100
     14 CAW         -0.5550    22.4120   -19.5580 c3         1 MWZ      -0.077400
     15 NAX          4.5370    25.3720   -20.3840 nd         1 MWZ      -0.642000
     16 CBD          8.3370    27.2160   -18.4890 ca         1 MWZ      -0.090300
     17 CBE          5.1400    25.1140   -19.1640 cd         1 MWZ       0.302300
     18 CBF          1.7300    24.3710   -24.5310 ca         1 MWZ      -0.035200
     19 CBH          1.7760    23.7680   -22.1560 ca         1 MWZ       0.180100
     20 CBI          3.0760    24.3100   -22.0350 ca         1 MWZ      -0.094500
     21 CBJ          3.7770    24.3430   -20.7450 cc         1 MWZ       0.442900
     22 OBA          1.1670    23.2530   -21.0310 os         1 MWZ      -0.344100
     23 SBB          3.8130    22.9630   -19.6670 ss         1 MWZ       0.059600
     24 C02          0.6150    23.4770   -27.6940 cc         1 MWZ      -0.105300
     25 N02          1.0700    24.3900   -25.7620 na         1 MWZ       0.318000
     26 N03          0.6030    24.8730   -27.7590 na         1 MWZ       0.180800
     27 C04         -1.1620    22.2780   -29.0560 c3         1 MWZ      -0.068400
     28 C05         -1.4510    21.3100   -30.2300 c3         1 MWZ      -0.072400
     29 C06         -2.9550    21.0690   -30.4980 c3         1 MWZ       0.150800
     30 C07         -0.7700    23.5540   -18.5090 c6         1 MWZ      -0.060700
     31 C08         -1.2910    22.9720   -17.1650 c6         1 MWZ      -0.109900
     32 C09         -1.4920    24.0810   -16.1040 c6         1 MWZ       0.146300
     33 C10          0.3240    25.7130   -28.9310 c3         1 MWZ       0.049900
     34 C01          0.9630    23.1750   -26.3960 cd         1 MWZ      -0.160000
     35 N01          0.9460    25.4750   -26.5710 n2         1 MWZ      -0.274600
     36 N05         -0.2380    24.8420   -15.8930 n7         1 MWZ      -0.836400
     37 H1           1.3360    23.7560   -17.9420 hc         1 MWZ       0.044700
     38 H2           0.8200    24.9260   -19.1540 hc         1 MWZ       0.044700
     39 H3           1.1940    26.0120   -16.9380 h1         1 MWZ       0.057200
     40 H4          -0.4770    26.2060   -17.5010 h1         1 MWZ       0.057200
     41 H6          10.5710    27.5630   -15.9150 ha         1 MWZ       0.115500
     42 H7           9.2000    30.5220   -18.7450 ha         1 MWZ       0.115500
     43 H8           9.1210    25.8550   -16.9930 ha         1 MWZ       0.108500
     44 H9           7.7480    28.8180   -19.8280 ha         1 MWZ       0.108500
     45 H10          3.4930    25.4080   -25.2560 ha         1 MWZ       0.144000
     46 H11          4.6560    25.3760   -23.0790 ha         1 MWZ       0.169000
     47 H12          5.2090    23.4530   -17.6980 h4         1 MWZ       0.171000
     48 H13          0.1190    23.3710   -23.5140 ha         1 MWZ       0.133000
     49 H14         -0.8720    23.6760   -21.3020 h1         1 MWZ       0.040200
     50 H15         -0.3740    22.0060   -21.6790 h1         1 MWZ       0.040200
     51 H16          7.8920    25.1760   -19.0500 hc         1 MWZ       0.051200
     52 H17          7.3700    26.3680   -20.2250 hc         1 MWZ       0.051200
     53 H20         -1.4750    21.8180   -19.6200 hc         1 MWZ       0.064200
     54 H21          0.2200    21.7190   -19.2090 hc         1 MWZ       0.064200
     55 H24         -1.6710    23.2310   -29.2410 hc         1 MWZ       0.057200
     56 H25         -1.5840    21.8680   -28.1300 hc         1 MWZ       0.057200
     57 H26         -4.5950    20.1740   -29.6380 hn         1 MWZ       0.403000
     58 H27         -3.2070    19.4400   -29.2690 hn         1 MWZ       0.403000
     59 H29         -0.9570    20.3490   -30.0440 hc         1 MWZ       0.045700
     60 H30         -1.0030    21.7200   -31.1430 hc         1 MWZ       0.045700
     61 H31         -3.0660    20.4580   -31.4040 h1         1 MWZ       0.040200
     62 H32         -3.4570    22.0320   -30.6720 h1         1 MWZ       0.040200
     63 H33         -1.5480    24.2130   -18.9220 hc         1 MWZ       0.045700
     64 H34         -2.2430    22.4480   -17.3250 hc         1 MWZ       0.044700
     65 H35         -0.5840    22.2230   -16.7820 hc         1 MWZ       0.044700
     66 H36         -2.2900    24.7640   -16.4320 h1         1 MWZ       0.057200
     67 H37         -1.8160    23.6280   -15.1540 h1         1 MWZ       0.057200
     68 H38          0.3890    26.7730   -28.6590 h1         1 MWZ       0.098033
     69 H39          1.0570    25.4980   -29.7170 h1         1 MWZ       0.098033
     70 H40         -0.6840    25.4990   -29.3030 h1         1 MWZ       0.098033
     71 H41          1.1330    22.2270   -25.8990 h4         1 MWZ       0.215000
     72 H42          0.4790    24.1890   -15.5570 hn         1 MWZ       0.402000
     73 C03          0.3460    22.5370   -28.8420 c3         1 MWZ      -0.033100
     74 CAU          6.0280    26.1520   -18.5380 c3         1 MWZ      -0.105700
     75 H5          10.6140    29.8990   -16.7880 ha         1 MWZ       0.117000
     76 N04         -3.6210    20.3740   -29.3770 n8         1 MWZ      -1.014200
     77 H18          5.5740    27.1440   -18.6500 hc         1 MWZ       0.063700
     78 H19          6.1060    25.9690   -17.4590 hc         1 MWZ       0.063700
     79 H22          0.8500    21.5800   -28.6540 hc         1 MWZ       0.082200
     80 H23          0.7840    22.9350   -29.7660 hc         1 MWZ       0.082200
@<TRIPOS>BOND
     1     1     2 1   
     2     1    30 1   
     3     1    37 1   
     4     1    38 1   
     5     2    36 1   
     6     2    39 1   
     7     2    40 1   
     8     3     4 ar  
     9     3     5 ar  
    10     3    75 1   
    11     4     6 ar  
    12     4    41 1   
    13     5     7 ar  
    14     5    42 1   
    15     6    16 ar  
    16     6    43 1   
    17     7    16 ar  
    18     7    44 1   
    19     8     9 ar  
    20     8    18 ar  
    21     8    45 1   
    22     9    20 ar  
    23     9    46 1   
    24    10    17 2   
    25    10    23 1   
    26    10    47 1   
    27    11    18 ar  
    28    11    19 ar  
    29    11    48 1   
    30    12    14 1   
    31    12    22 1   
    32    12    49 1   
    33    12    50 1   
    34    13    16 1   
    35    13    51 1   
    36    13    52 1   
    37    13    74 1   
    38    14    30 1   
    39    14    53 1   
    40    14    54 1   
    41    15    17 1   
    42    15    21 2   
    43    17    74 1   
    44    18    25 1   
    45    19    20 ar  
    46    19    22 1   
    47    20    21 1   
    48    21    23 1   
    49    24    26 1   
    50    24    34 2   
    51    24    73 1   
    52    25    34 1   
    53    25    35 2   
    54    26    33 1   
    55    26    35 1   
    56    27    28 1   
    57    27    55 1   
    58    27    56 1   
    59    27    73 1   
    60    28    29 1   
    61    28    59 1   
    62    28    60 1   
    63    29    61 1   
    64    29    62 1   
    65    29    76 1   
    66    30    31 1   
    67    30    63 1   
    68    31    32 1   
    69    31    64 1   
    70    31    65 1   
    71    32    36 1   
    72    32    66 1   
    73    32    67 1   
    74    33    68 1   
    75    33    69 1   
    76    33    70 1   
    77    34    71 1   
    78    36    72 1   
    79    57    76 1   
    80    58    76 1   
    81    73    79 1   
    82    73    80 1   
    83    74    77 1   
    84    74    78 1   
@<TRIPOS>SUBSTRUCTURE
     1 MWZ         1 TEMP              0 ****  ****    0 ROOT
