@<TRIPOS>MOLECULE
MX1
   45    46     1     0     0
SMALL
abcg2


@<TRIPOS>ATOM
      1 O4          34.1430    -5.9140    31.1030 o          1 MX1      -0.737500
      2 C7          33.1410    -6.4040    31.6750 c          1 MX1       0.645700
      3 O3          32.9170    -7.6100    31.9330 o          1 MX1      -0.737500
      4 C4          32.0600    -5.4100    32.0970 ce         1 MX1       0.398600
      5 N1          32.0540    -5.0070    33.3100 n2         1 MX1      -0.557900
      6 C5          31.0970    -4.9410    31.0840 ce         1 MX1      -0.179800
      7 C8          30.9980    -5.4790    29.8690 c2         1 MX1      -0.351000
      8 C6          30.2690    -3.7770    31.5380 c6         1 MX1       0.171800
      9 O2          29.9110    -3.9440    32.9110 os         1 MX1      -0.475000
     10 C3          31.0100    -4.1450    33.7910 c6         1 MX1       0.333500
     11 C2          31.5670    -2.7860    34.3530 c3         1 MX1       0.182400
     12 C1          32.4500    -2.0050    33.2970 c          1 MX1       0.693000
     13 O32         33.6270    -2.3900    33.1690 o          1 MX1      -0.704000
     14 O31         31.8820    -1.0730    32.6780 o          1 MX1      -0.704000
     15 O5          32.3340    -3.1680    35.4780 os         1 MX1      -0.436000
     16 C9          32.8710    -2.0960    36.2400 c3         1 MX1       0.169900
     17 N2          30.4640    -1.9200    34.7180 ns         1 MX1      -0.485900
     18 C10         29.4680    -2.2020    35.5730 c          1 MX1       0.610100
     19 O6          29.3710    -3.2480    36.2220 o          1 MX1      -0.697100
     20 C11         28.4100    -1.1090    35.7650 c3         1 MX1      -0.245400
     21 C12         28.0370    -0.2480    34.5210 c          1 MX1       0.724000
     22 O8          28.9750     0.2300    33.8320 o          1 MX1      -0.718000
     23 O7          26.8120    -0.0730    34.3350 o          1 MX1      -0.718000
     24 C13         28.8050    -0.2060    36.9190 ca         1 MX1      -0.011300
     25 C14         29.9630     0.5730    36.8870 ca         1 MX1      -0.069000
     26 C18         27.9980    -0.1320    38.0550 ca         1 MX1      -0.069000
     27 C17         28.3240     0.6920    39.1260 ca         1 MX1      -0.183000
     28 C16         29.4820     1.4610    39.0750 ca         1 MX1       0.067100
     29 O9          29.7710     2.2560    40.1500 oh         1 MX1      -0.576100
     30 C15         30.3030     1.3990    37.9510 ca         1 MX1      -0.183000
     31 H81         30.2710    -5.1120    29.1530 ha         1 MX1       0.141000
     32 H82         31.6350    -6.2950    29.5520 ha         1 MX1       0.141000
     33 H61         30.8190    -2.8410    31.4040 h1         1 MX1       0.060700
     34 H62         29.3350    -3.7110    30.9820 h1         1 MX1       0.060700
     35 H3          30.5730    -4.6330    34.6610 h2         1 MX1       0.092700
     36 H91         33.5030    -2.5480    37.0030 h1         1 MX1       0.006367
     37 H92         33.4780    -1.4300    35.6210 h1         1 MX1       0.006367
     38 H93         32.0820    -1.5160    36.7240 h1         1 MX1       0.006367
     39 HN2         30.3500    -1.0750    34.1580 hn         1 MX1       0.389500
     40 H11         27.5110    -1.6450    36.0610 hc         1 MX1       0.057700
     41 H14         30.6080     0.5410    36.0200 ha         1 MX1       0.133500
     42 H18         27.0950    -0.7290    38.1040 ha         1 MX1       0.133500
     43 H17         27.6880     0.7420    40.0010 ha         1 MX1       0.088500
     44 HO9         30.5940     2.7370    39.9890 ho         1 MX1       0.438000
     45 H15         31.2070     1.9970    37.9110 ha         1 MX1       0.088500
@<TRIPOS>BOND
     1     1     2 1   
     2     2     3 1   
     3     2     4 1   
     4     4     5 2   
     5     4     6 1   
     6     5    10 1   
     7     6     7 2   
     8     6     8 1   
     9     7    31 1   
    10     7    32 1   
    11     8     9 1   
    12     8    33 1   
    13     8    34 1   
    14     9    10 1   
    15    10    11 1   
    16    10    35 1   
    17    11    12 1   
    18    11    15 1   
    19    11    17 1   
    20    12    13 1   
    21    12    14 1   
    22    15    16 1   
    23    16    36 1   
    24    16    37 1   
    25    16    38 1   
    26    17    18 1   
    27    17    39 1   
    28    18    19 2   
    29    18    20 1   
    30    20    21 1   
    31    20    24 1   
    32    20    40 1   
    33    21    22 1   
    34    21    23 1   
    35    24    25 ar  
    36    24    26 ar  
    37    25    30 ar  
    38    25    41 1   
    39    26    27 ar  
    40    26    42 1   
    41    27    28 ar  
    42    27    43 1   
    43    28    29 1   
    44    28    30 ar  
    45    29    44 1   
    46    30    45 1   
@<TRIPOS>SUBSTRUCTURE
     1 MX1         1 TEMP              0 ****  ****    0 ROOT
