@<TRIPOS>MOLECULE
MX1
   45    46     1     0     0
SMALL
No Charge or Current Charge


@<TRIPOS>ATOM
      1 O4          33.9880    -5.7790    30.5040 o          1 MX1      -0.737500
      2 C7          33.5570    -5.8600    31.6530 c          1 MX1       0.645700
      3 O3          34.2310    -6.4090    32.5250 o          1 MX1      -0.737500
      4 C4          32.1670    -5.2510    32.0150 ce         1 MX1       0.398600
      5 N1          31.7870    -5.2550    33.2710 n2         1 MX1      -0.557900
      6 C5          31.2220    -4.7120    30.9840 ce         1 MX1      -0.179800
      7 C8          31.1370    -5.1360    29.6980 c2         1 MX1      -0.351000
      8 C6          30.2540    -3.6430    31.4860 c6         1 MX1       0.171800
      9 O2          29.7540    -3.9730    32.7890 os         1 MX1      -0.475000
     10 C3          30.7520    -4.3300    33.7700 c6         1 MX1       0.333500
     11 C2          31.3580    -3.0440    34.4980 c3         1 MX1       0.182400
     12 C1          32.3720    -2.2650    33.5400 c          1 MX1       0.693000
     13 O32         33.5460    -2.6170    33.4800 o          1 MX1      -0.704000
     14 O31         31.9970    -1.2100    33.0360 o          1 MX1      -0.704000
     15 O5          32.0560    -3.5460    35.6820 os         1 MX1      -0.436000
     16 C9          32.5990    -2.5570    36.5810 c3         1 MX1       0.169900
     17 N2          30.2770    -2.0980    34.8660 ns         1 MX1      -0.485900
     18 C10         29.1890    -2.3490    35.6620 c          1 MX1       0.610100
     19 O6          28.9840    -3.4420    36.1750 o          1 MX1      -0.697100
     20 C11         28.2430    -1.1780    35.8870 c3         1 MX1      -0.245400
     21 C12         27.8300    -0.5540    34.5580 c          1 MX1       0.724000
     22 O8          28.6790     0.0100    33.8870 o          1 MX1      -0.718000
     23 O7          26.6520    -0.6150    34.2420 o          1 MX1      -0.718000
     24 C13         28.7960    -0.1640    36.9020 ca         1 MX1      -0.011300
     25 C14         29.9760     0.5740    36.6570 ca         1 MX1      -0.069000
     26 C18         28.1180     0.0290    38.1250 ca         1 MX1      -0.069000
     27 C17         28.6070     0.9390    39.0790 ca         1 MX1      -0.183000
     28 C16         29.7790     1.6630    38.8240 ca         1 MX1       0.067100
     29 O9          30.2490     2.5420    39.7500 oh         1 MX1      -0.576100
     30 C15         30.4640     1.4820    37.6140 ca         1 MX1      -0.183000
     31 H81         30.4100    -4.7140    29.0030 ha         1 MX1       0.141000
     32 H82         31.7740    -5.9240    29.2980 ha         1 MX1       0.141000
     33 H61         30.7440    -2.6630    31.5020 h1         1 MX1       0.060700
     34 H62         29.3960    -3.5570    30.8040 h1         1 MX1       0.060700
     35 H3          30.2220    -4.8760    34.5640 h2         1 MX1       0.092700
     36 H91         33.1450    -3.0490    37.3960 h1         1 MX1       0.006367
     37 H92         33.2950    -1.8860    36.0650 h1         1 MX1       0.006367
     38 H93         31.8010    -1.9520    37.0310 h1         1 MX1       0.006367
     39 HN2         30.2700    -1.2040    34.3810 hn         1 MX1       0.389500
     40 H11         27.3380    -1.6160    36.3240 hc         1 MX1       0.057700
     41 H14         30.5230     0.4550    35.7260 ha         1 MX1       0.133500
     42 H18         27.2090    -0.5280    38.3410 ha         1 MX1       0.133500
     43 H17         28.0750     1.0770    40.0170 ha         1 MX1       0.088500
     44 HO9         31.0690     2.9520    39.3990 ho         1 MX1       0.438000
     45 H15         31.3730     2.0410    37.4070 ha         1 MX1       0.088500
@<TRIPOS>BOND
     1     1     2 1   
     2     2     3 1   
     3     2     4 1   
     4     4     5 2   
     5     4     6 1   
     6     5    10 1   
     7     6     7 2   
     8     6     8 1   
     9     7    31 1   
    10     7    32 1   
    11     8     9 1   
    12     8    33 1   
    13     8    34 1   
    14     9    10 1   
    15    10    11 1   
    16    10    35 1   
    17    11    12 1   
    18    11    15 1   
    19    11    17 1   
    20    12    13 1   
    21    12    14 1   
    22    15    16 1   
    23    16    36 1   
    24    16    37 1   
    25    16    38 1   
    26    17    18 1   
    27    17    39 1   
    28    18    19 2   
    29    18    20 1   
    30    20    21 1   
    31    20    24 1   
    32    20    40 1   
    33    21    22 1   
    34    21    23 1   
    35    24    25 ar  
    36    24    26 ar  
    37    25    30 ar  
    38    25    41 1   
    39    26    27 ar  
    40    26    42 1   
    41    27    28 ar  
    42    27    43 1   
    43    28    29 1   
    44    28    30 ar  
    45    29    44 1   
    46    30    45 1   
@<TRIPOS>SUBSTRUCTURE
     1 MX1         1 TEMP              0 ****  ****    0 ROOT
