@<TRIPOS>MOLECULE
MX3
   39    39     1     0     0
SMALL
abcg2


@<TRIPOS>ATOM
      1 C1          -4.3300     0.2470     0.4100 ca         1 MX3      -0.106300
      2 C2          -5.4660     0.8880    -0.0720 ca         1 MX3      -0.097000
      3 N20          3.6150    -1.9350     0.7480 n8         1 MX3      -0.754200
      4 C3          -6.3870     0.2060    -0.8600 ca         1 MX3      -0.116000
      5 C4          -6.1760    -1.1280    -1.1760 ca         1 MX3      -0.112000
      6 C5          -5.0440    -1.7780    -0.6970 ca         1 MX3      -0.116000
      7 C6          -4.1290    -1.0950     0.0900 ca         1 MX3      -0.097000
      8 C7          -3.3210     0.9930     1.2480 c3         1 MX3       0.138300
      9 C9           0.2450     0.6110    -0.0110 c3         1 MX3      -0.138400
     10 C10          1.3630    -0.3430     0.3680 c3         1 MX3      -0.159400
     11 C11          2.5750    -0.1800    -0.5270 c          1 MX3       0.579100
     12 C15         -0.9930     0.4090     0.8410 c          1 MX3       0.601100
     13 C12          4.8600    -0.8410    -0.9630 c3         1 MX3      -0.040000
     14 C13          5.7260     0.1850    -0.1980 c          1 MX3       0.713000
     15 C14         -2.1050     2.0930    -0.5800 c3         1 MX3       0.089300
     16 N2           3.5770    -1.0730    -0.3460 n          1 MX3      -0.235200
     17 N3          -2.0610     1.1890     0.5510 n          1 MX3      -0.411800
     18 O4          -1.0160    -0.4180     1.7450 o          1 MX3      -0.620100
     19 O6           2.6340     0.6850    -1.3910 o          1 MX3      -0.617100
     20 O7           5.2350     0.6960     0.8240 o          1 MX3      -0.734500
     21 O8           6.8500     0.3970    -0.6920 o          1 MX3      -0.734500
     22 H2          -5.6370     1.9300     0.1730 ha         1 MX3       0.118500
     23 H201         3.5980    -1.4080     1.6130 hn         1 MX3       0.395500
     24 H202         2.8180    -2.5550     0.7300 hn         1 MX3       0.395500
     25 H3          -7.2650     0.7200    -1.2290 ha         1 MX3       0.109000
     26 H4          -6.8900    -1.6610    -1.7900 ha         1 MX3       0.106000
     27 H5          -4.8750    -2.8200    -0.9370 ha         1 MX3       0.109000
     28 H6          -3.2530    -1.6110     0.4660 ha         1 MX3       0.118500
     29 H7C1        -3.1280     0.4610     2.1770 h1         1 MX3       0.063700
     30 H7C2        -3.7210     1.9740     1.5150 h1         1 MX3       0.063700
     31 H9C1        -0.0230     0.4840    -1.0640 hc         1 MX3       0.075700
     32 H9C2         0.5850     1.6450     0.0830 hc         1 MX3       0.075700
     33 H101         1.6670    -0.1760     1.4050 hc         1 MX3       0.062700
     34 H102         1.0080    -1.3760     0.3290 hc         1 MX3       0.062700
     35 H121         5.3840    -1.7970    -1.0110 h1         1 MX3       0.048200
     36 H122         4.7240    -0.5060    -1.9920 h1         1 MX3       0.048200
     37 H141        -1.1420     2.5650    -0.7540 h1         1 MX3       0.039700
     38 H142        -2.4200     1.5950    -1.5000 h1         1 MX3       0.039700
     39 H143        -2.8180     2.8880    -0.3670 h1         1 MX3       0.039700
@<TRIPOS>BOND
     1     1     2 ar  
     2     1     7 ar  
     3     1     8 1   
     4     2     4 ar  
     5     2    22 1   
     6     3    16 1   
     7     3    23 1   
     8     3    24 1   
     9     4     5 ar  
    10     4    25 1   
    11     5     6 ar  
    12     5    26 1   
    13     6     7 ar  
    14     6    27 1   
    15     7    28 1   
    16     8    17 1   
    17     8    29 1   
    18     8    30 1   
    19     9    10 1   
    20     9    12 1   
    21     9    31 1   
    22     9    32 1   
    23    10    11 1   
    24    10    33 1   
    25    10    34 1   
    26    11    16 1   
    27    11    19 2   
    28    12    17 1   
    29    12    18 2   
    30    13    14 1   
    31    13    16 1   
    32    13    35 1   
    33    13    36 1   
    34    14    20 1   
    35    14    21 1   
    36    15    17 1   
    37    15    37 1   
    38    15    38 1   
    39    15    39 1   
@<TRIPOS>SUBSTRUCTURE
     1 MX3         1 TEMP              0 ****  ****    0 ROOT
