@<TRIPOS>MOLECULE
MX3
   39    39     1     0     0
SMALL
No Charge or Current Charge


@<TRIPOS>ATOM
      1 C1          -4.4740     0.2540     0.3890 ca         1 MX3      -0.106300
      2 C2          -5.4500     0.9650    -0.3370 ca         1 MX3      -0.097000
      3 N20          3.7790    -2.1960     0.7850 n8         1 MX3      -0.754200
      4 C3          -6.3860     0.2770    -1.1280 ca         1 MX3      -0.116000
      5 C4          -6.3520    -1.1260    -1.1990 ca         1 MX3      -0.112000
      6 C5          -5.3810    -1.8400    -0.4770 ca         1 MX3      -0.116000
      7 C6          -4.4450    -1.1530     0.3140 ca         1 MX3      -0.097000
      8 C7          -3.4540     0.9970     1.2440 c3         1 MX3       0.138300
      9 C9           0.2550     0.5500     0.0390 c3         1 MX3      -0.138400
     10 C10          1.4150    -0.4400     0.3550 c3         1 MX3      -0.159400
     11 C11          2.7350    -0.1970    -0.4070 c          1 MX3       0.579100
     12 C15         -1.0680     0.3120     0.8000 c          1 MX3       0.601100
     13 C12          5.1390    -0.8660    -0.8130 c3         1 MX3      -0.040000
     14 C13          5.8110     0.5170    -0.5950 c          1 MX3       0.713000
     15 C14         -2.0720     2.2840    -0.4330 c3         1 MX3       0.089300
     16 N2           3.8350    -1.0740    -0.1200 n          1 MX3      -0.235200
     17 N3          -2.1550     1.1870     0.5590 n          1 MX3      -0.411800
     18 O4          -1.1720    -0.6100     1.6000 o          1 MX3      -0.620100
     19 O6           2.8310     0.7040    -1.2350 o          1 MX3      -0.617100
     20 O7           5.8680     0.9740     0.5400 o          1 MX3      -0.734500
     21 O8           6.3040     1.0780    -1.5650 o          1 MX3      -0.734500
     22 H2          -5.4830     2.0520    -0.2900 ha         1 MX3       0.118500
     23 H201         3.5440    -1.8810     1.7360 hn         1 MX3       0.395500
     24 H202         3.0410    -2.8550     0.5010 hn         1 MX3       0.395500
     25 H3          -7.1370     0.8310    -1.6870 ha         1 MX3       0.109000
     26 H4          -7.0770    -1.6580    -1.8110 ha         1 MX3       0.106000
     27 H5          -5.3530    -2.9270    -0.5310 ha         1 MX3       0.109000
     28 H6          -3.6950    -1.7130     0.8690 ha         1 MX3       0.118500
     29 H7C1        -3.3100     0.4560     2.1880 h1         1 MX3       0.063700
     30 H7C2        -3.8580     1.9820     1.5140 h1         1 MX3       0.063700
     31 H9C1         0.0270     0.5690    -1.0320 hc         1 MX3       0.075700
     32 H9C2         0.5590     1.5890     0.2120 hc         1 MX3       0.075700
     33 H101         1.6460    -0.4630     1.4260 hc         1 MX3       0.062700
     34 H102         1.1150    -1.4790     0.1790 hc         1 MX3       0.062700
     35 H121         5.8560    -1.6290    -0.4850 h1         1 MX3       0.048200
     36 H122         4.9840    -1.0030    -1.8910 h1         1 MX3       0.048200
     37 H141        -1.2700     2.9800    -0.1570 h1         1 MX3       0.039700
     38 H142        -1.8740     1.8720    -1.4300 h1         1 MX3       0.039700
     39 H143        -3.0170     2.8410    -0.4680 h1         1 MX3       0.039700
@<TRIPOS>BOND
     1     1     2 ar  
     2     1     7 ar  
     3     1     8 1   
     4     2     4 ar  
     5     2    22 1   
     6     3    16 1   
     7     3    23 1   
     8     3    24 1   
     9     4     5 ar  
    10     4    25 1   
    11     5     6 ar  
    12     5    26 1   
    13     6     7 ar  
    14     6    27 1   
    15     7    28 1   
    16     8    17 1   
    17     8    29 1   
    18     8    30 1   
    19     9    10 1   
    20     9    12 1   
    21     9    31 1   
    22     9    32 1   
    23    10    11 1   
    24    10    33 1   
    25    10    34 1   
    26    11    16 1   
    27    11    19 2   
    28    12    17 1   
    29    12    18 2   
    30    13    14 1   
    31    13    16 1   
    32    13    35 1   
    33    13    36 1   
    34    14    20 1   
    35    14    21 1   
    36    15    17 1   
    37    15    37 1   
    38    15    38 1   
    39    15    39 1   
@<TRIPOS>SUBSTRUCTURE
     1 MX3         1 TEMP              0 ****  ****    0 ROOT
