@<TRIPOS>MOLECULE
MX4
   35    35     1     0     0
SMALL
No Charge or Current Charge


@<TRIPOS>ATOM
      1 C2          -1.1520     1.1350    -0.4330 c3         1 MX4      -0.164400
      2 C3          -0.1460     1.2220    -1.6160 c3         1 MX4      -0.119400
      3 C4           1.1640     1.8930    -1.1970 c          1 MX4       0.589100
      4 O5           1.3290     3.1060    -1.1800 o          1 MX4      -0.508000
      5 O6           2.0970     0.9780    -0.7900 os         1 MX4      -0.444100
      6 C7          -2.5060     0.4660    -0.7500 c          1 MX4       0.581100
      7 O8          -2.7650     0.0710    -1.8810 o          1 MX4      -0.610100
      8 N9          -3.4490     0.3440     0.3250 n          1 MX4      -0.233200
      9 C10         -4.7640    -0.3160     0.0750 c3         1 MX4      -0.040000
     10 C12          4.1810    -0.2270     1.3700 ca         1 MX4      -0.085000
     11 C13          4.9770    -1.3250     1.7370 ca         1 MX4      -0.117000
     12 C14          5.8280    -1.9250     0.7940 ca         1 MX4      -0.105000
     13 C15          5.8820    -1.4250    -0.5180 ca         1 MX4      -0.117000
     14 C16          5.0860    -0.3270    -0.8870 ca         1 MX4      -0.085000
     15 C17          4.2320     0.2800     0.0560 ca         1 MX4      -0.090300
     16 C18         -4.7030    -1.7840    -0.4260 c          1 MX4       0.713000
     17 C9           3.3700     1.4710    -0.3420 c3         1 MX4       0.210900
     18 O19         -3.9470    -2.5690     0.1330 o          1 MX4      -0.734000
     19 N16         -3.2460     0.8460     1.6620 n8         1 MX4      -0.757200
     20 O20         -5.4510    -2.1140    -1.3370 o          1 MX4      -0.734000
     21 H2C1        -1.3580     2.1250    -0.0090 hc         1 MX4       0.061200
     22 H2C2        -0.7150     0.6210     0.4310 hc         1 MX4       0.061200
     23 H3C1         0.0700     0.1970    -1.9420 hc         1 MX4       0.088700
     24 H3C2        -0.5970     1.7990    -2.4310 hc         1 MX4       0.088700
     25 H101        -5.3580    -0.3140     0.9970 h1         1 MX4       0.049200
     26 H102        -5.3110     0.2750    -0.6700 h1         1 MX4       0.049200
     27 H14          6.4440    -2.7750     1.0790 ha         1 MX4       0.107000
     28 H15          6.5390    -1.8900    -1.2500 ha         1 MX4       0.110000
     29 H16          5.1310     0.0530    -1.9060 ha         1 MX4       0.115000
     30 H9C1         3.8710     2.0370    -1.1380 h1         1 MX4       0.051200
     31 H9C2         3.2470     2.1380     0.5220 h1         1 MX4       0.051200
     32 H161        -2.4220     0.4050     2.0920 hn         1 MX4       0.395500
     33 H162        -3.0650     1.8590     1.6460 hn         1 MX4       0.395500
     34 H12          3.5220     0.2300     2.1050 ha         1 MX4       0.115000
     35 H13          4.9330    -1.7120     2.7530 ha         1 MX4       0.110000
@<TRIPOS>BOND
     1     1     2 1   
     2     1     6 1   
     3     1    21 1   
     4     1    22 1   
     5     2     3 1   
     6     2    23 1   
     7     2    24 1   
     8     3     4 2   
     9     3     5 1   
    10     5    17 1   
    11     6     7 2   
    12     6     8 1   
    13     8     9 1   
    14     8    19 1   
    15     9    16 1   
    16     9    25 1   
    17     9    26 1   
    18    10    11 ar  
    19    10    15 ar  
    20    10    34 1   
    21    11    12 ar  
    22    11    35 1   
    23    12    13 ar  
    24    12    27 1   
    25    13    14 ar  
    26    13    28 1   
    27    14    15 ar  
    28    14    29 1   
    29    15    17 1   
    30    16    18 1   
    31    16    20 1   
    32    17    30 1   
    33    17    31 1   
    34    19    32 1   
    35    19    33 1   
@<TRIPOS>SUBSTRUCTURE
     1 MX4         1 TEMP              0 ****  ****    0 ROOT
