@<TRIPOS>MOLECULE
MX4
   35    35     1     0     0
SMALL
abcg2


@<TRIPOS>ATOM
      1 C2          -1.4400     0.9770    -0.1170 c3         1 MX4      -0.164400
      2 C3          -0.0880     0.4480    -0.5590 c3         1 MX4      -0.119400
      3 C4           1.0540     1.2260     0.0360 c          1 MX4       0.589100
      4 O5           0.9650     2.3090     0.5580 o          1 MX4      -0.508000
      5 O6           2.2030     0.5740    -0.1020 os         1 MX4      -0.444100
      6 C7          -2.5820     0.2170    -0.7590 c          1 MX4       0.581100
      7 O8          -2.3860    -0.7450    -1.4890 o          1 MX4      -0.610100
      8 N9          -3.8290     0.6830    -0.5140 n          1 MX4      -0.233200
      9 C10         -4.9710    -0.1330    -0.8520 c3         1 MX4      -0.040000
     10 C12          4.8990    -0.5990     1.2510 ca         1 MX4      -0.085000
     11 C13          5.9220    -1.5230     1.0800 ca         1 MX4      -0.117000
     12 C14          6.5720    -1.6210    -0.1430 ca         1 MX4      -0.105000
     13 C15          6.1970    -0.7920    -1.1930 ca         1 MX4      -0.117000
     14 C16          5.1760     0.1310    -1.0190 ca         1 MX4      -0.085000
     15 C17          4.5180     0.2350     0.2040 ca         1 MX4      -0.090300
     16 C18         -5.2400    -1.2510     0.1800 c          1 MX4       0.713000
     17 C9           3.3970     1.2120     0.3820 c3         1 MX4       0.210900
     18 O19         -4.4500    -1.3460     1.1360 o          1 MX4      -0.734000
     19 N16         -4.0850     1.6460     0.4590 n8         1 MX4      -0.757200
     20 O20         -6.2430    -1.9530    -0.0530 o          1 MX4      -0.734000
     21 H2C1        -1.5250     2.0410    -0.3470 hc         1 MX4       0.061200
     22 H2C2        -1.5310     0.9030     0.9710 hc         1 MX4       0.061200
     23 H3C1         0.0270    -0.6060    -0.3040 hc         1 MX4       0.088700
     24 H3C2         0.0120     0.5040    -1.6470 hc         1 MX4       0.088700
     25 H101        -5.8400     0.5230    -0.9170 h1         1 MX4       0.049200
     26 H102        -4.8350    -0.5740    -1.8400 h1         1 MX4       0.049200
     27 H14          7.3710    -2.3390    -0.2750 ha         1 MX4       0.107000
     28 H15          6.7040    -0.8620    -2.1470 ha         1 MX4       0.110000
     29 H16          4.8920     0.7800    -1.8380 ha         1 MX4       0.115000
     30 H9C1         3.5790     2.1270    -0.1860 h1         1 MX4       0.051200
     31 H9C2         3.2770     1.4820     1.4330 h1         1 MX4       0.051200
     32 H161        -3.7400     1.3410     1.3610 hn         1 MX4       0.395500
     33 H162        -3.6380     2.5200     0.2150 hn         1 MX4       0.395500
     34 H12          4.3970    -0.5240     2.2080 ha         1 MX4       0.115000
     35 H13          6.2120    -2.1640     1.9020 ha         1 MX4       0.110000
@<TRIPOS>BOND
     1     1     2 1   
     2     1     6 1   
     3     1    21 1   
     4     1    22 1   
     5     2     3 1   
     6     2    23 1   
     7     2    24 1   
     8     3     4 2   
     9     3     5 1   
    10     5    17 1   
    11     6     7 2   
    12     6     8 1   
    13     8     9 1   
    14     8    19 1   
    15     9    16 1   
    16     9    25 1   
    17     9    26 1   
    18    10    11 ar  
    19    10    15 ar  
    20    10    34 1   
    21    11    12 ar  
    22    11    35 1   
    23    12    13 ar  
    24    12    27 1   
    25    13    14 ar  
    26    13    28 1   
    27    14    15 ar  
    28    14    29 1   
    29    15    17 1   
    30    16    18 1   
    31    16    20 1   
    32    17    30 1   
    33    17    31 1   
    34    19    32 1   
    35    19    33 1   
@<TRIPOS>SUBSTRUCTURE
     1 MX4         1 TEMP              0 ****  ****    0 ROOT
