@<TRIPOS>MOLECULE
MX5
   40    41     1     0     0
SMALL
abcg2


@<TRIPOS>ATOM
      1 C1           4.4070    -0.5330     0.3400 ca         1 MX5      -0.108300
      2 C2           4.0980    -1.9870     0.6010 c6         1 MX5      -0.025100
      3 N20         -3.8410     1.9760     0.1770 n8         1 MX5      -0.755200
      4 C4           5.1180     2.1120    -0.2260 ca         1 MX5      -0.105000
      5 C5           6.0170     1.2780     0.4290 ca         1 MX5      -0.128000
      6 C6           5.6590    -0.0320     0.6920 ca         1 MX5      -0.104000
      7 C7           3.5010     0.3240    -0.2920 ca         1 MX5      -0.027000
      8 C9          -0.2260    -0.1880    -0.6520 c3         1 MX5      -0.137400
      9 C10         -1.4160     0.7040    -0.3530 c3         1 MX5      -0.160400
     10 C11         -2.7290     0.0140    -0.6630 c          1 MX5       0.579100
     11 C12         -5.1440     0.1180    -0.5360 c3         1 MX5      -0.040000
     12 C13         -5.5180    -0.5890     0.7850 c          1 MX5       0.713000
     13 C14          2.2440    -1.6010    -1.0080 c6         1 MX5       0.095000
     14 N2          -3.8500     0.7550    -0.4920 n          1 MX5      -0.234200
     15 N3           2.2320    -0.1810    -0.6720 n          1 MX5      -0.231400
     16 O4           1.1240     1.5950     0.1870 o          1 MX5      -0.590100
     17 O6          -2.7760    -1.1310    -1.0910 o          1 MX5      -0.618100
     18 O7          -4.6790    -0.5650     1.7030 o          1 MX5      -0.734500
     19 C19          2.6790    -2.3910     0.2140 c6         1 MX5      -0.103400
     20 O8          -6.6450    -1.1200     0.7970 o          1 MX5      -0.734500
     21 C24          3.8710     1.6370    -0.5910 ca         1 MX5      -0.095000
     22 H2C1         4.2910    -2.2220     1.6500 hc         1 MX5       0.046200
     23 H2C2         4.8100    -2.5850     0.0250 hc         1 MX5       0.046200
     24 H201        -3.4940     1.8570     1.1220 hn         1 MX5       0.396000
     25 H202        -3.2490     2.6390    -0.3050 hn         1 MX5       0.396000
     26 H4           5.3890     3.1330    -0.4620 ha         1 MX5       0.109000
     27 H5           6.9930     1.6430     0.7190 ha         1 MX5       0.106000
     28 H6           6.3630    -0.6920     1.1860 ha         1 MX5       0.103000
     29 H9C1        -0.2950    -1.1110    -0.0690 hc         1 MX5       0.076700
     30 H9C2        -0.2400    -0.4950    -1.7000 hc         1 MX5       0.076700
     31 H101        -1.3490     1.6290    -0.9320 hc         1 MX5       0.063200
     32 H102        -1.4070     1.0120     0.6960 hc         1 MX5       0.063200
     33 H121        -5.8850     0.8870    -0.7600 h1         1 MX5       0.048700
     34 H122        -5.1790    -0.6000    -1.3560 h1         1 MX5       0.048700
     35 H141         1.2700    -1.9190    -1.3640 h1         1 MX5       0.060700
     36 H142         2.9450    -1.7510    -1.8330 h1         1 MX5       0.060700
     37 H191         1.9780    -2.1950     1.0290 hc         1 MX5       0.056200
     38 H192         2.6350    -3.4620     0.0090 hc         1 MX5       0.056200
     39 H24          3.1890     2.2840    -1.1230 ha         1 MX5       0.131000
     40 C15          1.0900     0.4940    -0.3360 c          1 MX5       0.601100
@<TRIPOS>BOND
     1     1     2 1   
     2     1     6 ar  
     3     1     7 ar  
     4     2    19 1   
     5     2    22 1   
     6     2    23 1   
     7     3    14 1   
     8     3    24 1   
     9     3    25 1   
    10     4     5 ar  
    11     4    21 ar  
    12     4    26 1   
    13     5     6 ar  
    14     5    27 1   
    15     6    28 1   
    16     7    15 1   
    17     7    21 ar  
    18     8     9 1   
    19     8    29 1   
    20     8    30 1   
    21     8    40 1   
    22     9    10 1   
    23     9    31 1   
    24     9    32 1   
    25    10    14 1   
    26    10    17 2   
    27    11    12 1   
    28    11    14 1   
    29    11    33 1   
    30    11    34 1   
    31    12    18 1   
    32    12    20 1   
    33    13    15 1   
    34    13    19 1   
    35    13    35 1   
    36    13    36 1   
    37    15    40 1   
    38    16    40 2   
    39    19    37 1   
    40    19    38 1   
    41    21    39 1   
@<TRIPOS>SUBSTRUCTURE
     1 MX5         1 TEMP              0 ****  ****    0 ROOT
