@<TRIPOS>MOLECULE
MX5
   40    41     1     0     0
SMALL
No Charge or Current Charge


@<TRIPOS>ATOM
      1 C1           4.6980    -0.5590     0.0430 ca         1 MX5      -0.108300
      2 C2           4.6520    -2.0770     0.2600 c6         1 MX5      -0.025100
      3 N20         -3.9110     2.4040    -0.0260 n8         1 MX5      -0.755200
      4 C4           4.8870     2.2180    -0.3770 ca         1 MX5      -0.105000
      5 C5           6.0450     1.4700    -0.1230 ca         1 MX5      -0.128000
      6 C6           5.9490     0.0870     0.0890 ca         1 MX5      -0.104000
      7 C7           3.5240     0.1820    -0.2570 ca         1 MX5      -0.027000
      8 C9          -0.3260    -0.3640    -0.1110 c3         1 MX5      -0.137400
      9 C10         -1.5050     0.6530    -0.0470 c3         1 MX5      -0.160400
     10 C11         -2.8840     0.1140    -0.4810 c          1 MX5       0.579100
     11 C12         -5.3560     0.5370    -0.8000 c3         1 MX5      -0.040000
     12 C13         -5.9100    -0.6610     0.0170 c          1 MX5       0.713000
     13 C14          2.2210    -1.9260    -0.4240 c6         1 MX5       0.095000
     14 N2          -3.9970     1.0180    -0.4150 n          1 MX5      -0.234200
     15 N3           2.2240    -0.4590    -0.1840 n          1 MX5      -0.231400
     16 O4           1.1250     1.1830     1.0240 o          1 MX5      -0.590100
     17 O6          -3.0150    -1.0390    -0.8780 o          1 MX5      -0.618100
     18 O7          -5.8090    -0.6410     1.2380 o          1 MX5      -0.734500
     19 C19          3.2290    -2.6120     0.5160 c6         1 MX5      -0.103400
     20 O8          -6.4730    -1.5630    -0.5900 o          1 MX5      -0.734500
     21 C24          3.6360     1.5820    -0.4290 ca         1 MX5      -0.095000
     22 H2C1         5.3060    -2.3610     1.0970 hc         1 MX5       0.046200
     23 H2C2         5.0660    -2.5690    -0.6310 hc         1 MX5       0.046200
     24 H201        -3.5500     2.4880     0.9340 hn         1 MX5       0.396000
     25 H202        -3.2560     2.9120    -0.6340 hn         1 MX5       0.396000
     26 H4           4.9570     3.2920    -0.5320 ha         1 MX5       0.109000
     27 H5           7.0150     1.9610    -0.0830 ha         1 MX5       0.106000
     28 H6           6.8510    -0.4870     0.2920 ha         1 MX5       0.103000
     29 H9C1        -0.5380    -1.2300     0.5260 hc         1 MX5       0.076700
     30 H9C2        -0.2360    -0.8090    -1.1090 hc         1 MX5       0.076700
     31 H101        -1.2930     1.5490    -0.6420 hc         1 MX5       0.063200
     32 H102        -1.6150     1.0840     0.9550 hc         1 MX5       0.063200
     33 H121        -6.0780     1.3570    -0.7020 h1         1 MX5       0.048700
     34 H122        -5.3320     0.2450    -1.8580 h1         1 MX5       0.048700
     35 H141         1.2320    -2.3710    -0.2550 h1         1 MX5       0.060700
     36 H142         2.4950    -2.1200    -1.4710 h1         1 MX5       0.060700
     37 H191         2.9420    -2.4190     1.5590 hc         1 MX5       0.056200
     38 H192         3.2030    -3.7010     0.3760 hc         1 MX5       0.056200
     39 H24          2.7550     2.1860    -0.6300 ha         1 MX5       0.131000
     40 C15          1.0550     0.1870     0.3110 c          1 MX5       0.601100
@<TRIPOS>BOND
     1     1     2 1   
     2     1     6 ar  
     3     1     7 ar  
     4     2    19 1   
     5     2    22 1   
     6     2    23 1   
     7     3    14 1   
     8     3    24 1   
     9     3    25 1   
    10     4     5 ar  
    11     4    21 ar  
    12     4    26 1   
    13     5     6 ar  
    14     5    27 1   
    15     6    28 1   
    16     7    15 1   
    17     7    21 ar  
    18     8     9 1   
    19     8    29 1   
    20     8    30 1   
    21     8    40 1   
    22     9    10 1   
    23     9    31 1   
    24     9    32 1   
    25    10    14 1   
    26    10    17 2   
    27    11    12 1   
    28    11    14 1   
    29    11    33 1   
    30    11    34 1   
    31    12    18 1   
    32    12    20 1   
    33    13    15 1   
    34    13    19 1   
    35    13    35 1   
    36    13    36 1   
    37    15    40 1   
    38    16    40 2   
    39    19    37 1   
    40    19    38 1   
    41    21    39 1   
@<TRIPOS>SUBSTRUCTURE
     1 MX5         1 TEMP              0 ****  ****    0 ROOT
