@<TRIPOS>MOLECULE
MX8
   52    52     1     0     0
SMALL
No Charge or Current Charge


@<TRIPOS>ATOM
      1 CAJ         10.4670     1.4200     0.3950 c3         1 MX8      -0.089100
      2 CAI          8.9710     1.7550     0.5500 c3         1 MX8      -0.074400
      3 CAH          8.0430     0.6060     0.0990 c3         1 MX8      -0.075400
      4 CAG          6.5440     0.9430     0.2530 c3         1 MX8      -0.074400
      5 CAF          5.6160    -0.2070    -0.1980 c3         1 MX8      -0.082400
      6 CAE          4.1210     0.1310    -0.0430 c3         1 MX8       0.164600
      7 OAD          3.3680    -1.0080    -0.4920 os         1 MX8      -0.345100
      8 CAC          1.9890    -1.0260    -0.4820 ca         1 MX8       0.174100
      9 CAL          1.3450    -2.1830    -0.9390 ca         1 MX8      -0.188000
     10 CAM         -0.0570    -2.2630    -0.9540 ca         1 MX8      -0.030000
     11 CAB          1.2150     0.0630    -0.0340 ca         1 MX8      -0.188000
     12 CAA         -0.1900    -0.0120    -0.0460 ca         1 MX8      -0.030000
     13 CAN         -0.8460    -1.1790    -0.5090 ca         1 MX8      -0.195600
     14 CAO         -2.3540    -1.3010    -0.5370 c          1 MX8       0.626700
     15 OAP         -2.9160    -2.3210    -0.9140 o          1 MX8      -0.611100
     16 N           -3.0720    -0.2010    -0.1200 ns         1 MX8      -0.495900
     17 CA          -4.5510    -0.1160    -0.0390 c3         1 MX8       0.030700
     18 CB          -5.0710    -0.4450     1.3980 c3         1 MX8      -0.065700
     19 CG1         -4.8210    -1.9190     1.7980 c3         1 MX8      -0.090600
     20 CG2         -4.5220     0.5220     2.4770 c3         1 MX8      -0.090600
     21 C           -5.0380     1.2790    -0.5390 c          1 MX8       0.592100
     22 O           -4.2770     2.2230    -0.7250 o          1 MX8      -0.575100
     23 NAU         -6.4060     1.3770    -0.7830 ns         1 MX8      -0.386400
     24 OAV         -7.0350     2.6650    -1.0010 oh         1 MX8      -0.422100
     25 H1          10.7320     0.5430     0.9980 hc         1 MX8       0.032367
     26 H2          10.7110     1.2080    -0.6530 hc         1 MX8       0.032367
     27 H3          11.0840     2.2630     0.7270 hc         1 MX8       0.032367
     28 H4           8.7660     1.9970     1.6000 hc         1 MX8       0.036700
     29 H5           8.7450     2.6560    -0.0350 hc         1 MX8       0.036700
     30 H6           8.2520     0.3660    -0.9520 hc         1 MX8       0.040700
     31 H7           8.2730    -0.2930     0.6840 hc         1 MX8       0.040700
     32 H8           6.3350     1.1830     1.3040 hc         1 MX8       0.038700
     33 H9           6.3140     1.8420    -0.3330 hc         1 MX8       0.038700
     34 H10          5.8210    -0.4470    -1.2490 hc         1 MX8       0.056700
     35 H11          5.8410    -1.1060     0.3890 hc         1 MX8       0.056700
     36 H12          3.9020     0.3500     1.0110 h1         1 MX8       0.036200
     37 H13          3.8810     1.0170    -0.6450 h1         1 MX8       0.036200
     38 H14          1.9380    -3.0260    -1.2850 ha         1 MX8       0.126000
     39 H15         -0.5290    -3.1760    -1.3140 ha         1 MX8       0.124000
     40 H16          1.6820     0.9740     0.3280 ha         1 MX8       0.126000
     41 H17         -0.7490     0.8490     0.3110 ha         1 MX8       0.124000
     42 H18         -2.5380     0.6220     0.1280 hn         1 MX8       0.335500
     43 H19         -4.9830    -0.8460    -0.7360 h1         1 MX8       0.091700
     44 H20         -6.1610    -0.3180     1.3870 hc         1 MX8       0.045700
     45 H21         -3.7490    -2.1230     1.9090 hc         1 MX8       0.041033
     46 H22         -5.3090    -2.1480     2.7530 hc         1 MX8       0.041033
     47 H23         -5.2260    -2.6010     1.0410 hc         1 MX8       0.041033
     48 H24         -4.7600     1.5640     2.2330 hc         1 MX8       0.041033
     49 H25         -4.9670     0.2990     3.4550 hc         1 MX8       0.041033
     50 H26         -3.4330     0.4300     2.5740 hc         1 MX8       0.041033
     51 H27         -7.0230     0.6200    -0.4910 hn         1 MX8       0.339500
     52 H28         -7.5630     2.5310    -1.8240 ho         1 MX8       0.447000
@<TRIPOS>BOND
     1     1     2 1   
     2     1    25 1   
     3     1    26 1   
     4     1    27 1   
     5     2     3 1   
     6     2    28 1   
     7     2    29 1   
     8     3     4 1   
     9     3    30 1   
    10     3    31 1   
    11     4     5 1   
    12     4    32 1   
    13     4    33 1   
    14     5     6 1   
    15     5    34 1   
    16     5    35 1   
    17     6     7 1   
    18     6    36 1   
    19     6    37 1   
    20     7     8 1   
    21     8     9 ar  
    22     8    11 ar  
    23     9    10 ar  
    24     9    38 1   
    25    10    13 ar  
    26    10    39 1   
    27    11    12 ar  
    28    11    40 1   
    29    12    13 ar  
    30    12    41 1   
    31    13    14 1   
    32    14    15 2   
    33    14    16 1   
    34    16    17 1   
    35    16    42 1   
    36    17    18 1   
    37    17    21 1   
    38    17    43 1   
    39    18    19 1   
    40    18    20 1   
    41    18    44 1   
    42    19    45 1   
    43    19    46 1   
    44    19    47 1   
    45    20    48 1   
    46    20    49 1   
    47    20    50 1   
    48    21    22 2   
    49    21    23 1   
    50    23    24 1   
    51    23    51 1   
    52    24    52 1   
@<TRIPOS>SUBSTRUCTURE
     1 MX8         1 TEMP              0 ****  ****    0 ROOT
