@<TRIPOS>MOLECULE
MX8
   52    52     1     0     0
SMALL
bcc


@<TRIPOS>ATOM
      1 CAJ         10.2200     1.4320     0.4510 c3         1 MX8      -0.089100
      2 CAI          8.7470     1.5880     0.8040 c3         1 MX8      -0.074400
      3 CAH          7.8500     0.6320     0.0280 c3         1 MX8      -0.075400
      4 CAG          6.3740     0.7770     0.3780 c3         1 MX8      -0.074400
      5 CAF          5.4870    -0.1830    -0.4060 c3         1 MX8      -0.082400
      6 CAE          4.0280    -0.0160    -0.0390 c3         1 MX8       0.141400
      7 OAD          3.2660    -0.9370    -0.8090 os         1 MX8      -0.321900
      8 CAC          1.9340    -0.9620    -0.6730 ca         1 MX8       0.174100
      9 CAL          1.2480    -1.8960    -1.4570 ca         1 MX8      -0.206000
     10 CAM         -0.1250    -1.9950    -1.3790 ca         1 MX8      -0.048000
     11 CAB          1.2140    -0.1340     0.1870 ca         1 MX8      -0.206000
     12 CAA         -0.1690    -0.2360     0.2420 ca         1 MX8      -0.048000
     13 CAN         -0.8610    -1.1560    -0.5390 ca         1 MX8      -0.195600
     14 CAO         -2.3400    -1.3190    -0.4830 c          1 MX8       0.693700
     15 OAP         -2.8730    -2.3800    -0.7760 o          1 MX8      -0.611100
     16 N           -3.0310    -0.2300    -0.0910 ns         1 MX8      -0.562900
     17 CA          -4.4590    -0.2060     0.0830 c3         1 MX8       0.030700
     18 CB          -4.8720    -0.2120     1.5730 c3         1 MX8      -0.065700
     19 CG1         -4.4390    -1.5140     2.2360 c3         1 MX8      -0.090600
     20 CG2         -4.3350     0.9930     2.3370 c3         1 MX8      -0.090600
     21 C           -5.0160     1.0210    -0.6320 c          1 MX8       0.659100
     22 O           -4.3510     2.0160    -0.8540 o          1 MX8      -0.575100
     23 NAU         -6.3060     0.8880    -0.9800 ns         1 MX8      -0.453400
     24 OAV         -7.0130     1.9720    -1.4050 oh         1 MX8      -0.383100
     25 H1          10.5730     0.4210     0.6620 hc         1 MX8       0.032367
     26 H2          10.3940     1.6260    -0.6090 hc         1 MX8       0.032367
     27 H3          10.8440     2.1240     1.0180 hc         1 MX8       0.032367
     28 H4           8.6070     1.4260     1.8770 hc         1 MX8       0.036700
     29 H5           8.4320     2.6180     0.6080 hc         1 MX8       0.036700
     30 H6           7.9860     0.7980    -1.0460 hc         1 MX8       0.040700
     31 H7           8.1690    -0.3990     0.2200 hc         1 MX8       0.040700
     32 H8           6.2380     0.6080     1.4520 hc         1 MX8       0.038700
     33 H9           6.0570     1.8080     0.1880 hc         1 MX8       0.038700
     34 H10          5.6150    -0.0090    -1.4780 hc         1 MX8       0.056700
     35 H11          5.7960    -1.2130    -0.2080 hc         1 MX8       0.056700
     36 H12          3.8810    -0.2060     1.0300 h1         1 MX8       0.036200
     37 H13          3.6980     1.0100    -0.2420 h1         1 MX8       0.036200
     38 H14          1.8060    -2.5420    -2.1220 ha         1 MX8       0.144000
     39 H15         -0.6360    -2.7310    -1.9860 ha         1 MX8       0.142000
     40 H16          1.7060     0.5890     0.8230 ha         1 MX8       0.144000
     41 H17         -0.6920     0.4070     0.9400 ha         1 MX8       0.142000
     42 H18         -2.5520     0.6540    -0.0270 hn         1 MX8       0.335500
     43 H19         -4.8680    -1.1070    -0.3810 h1         1 MX8       0.091700
     44 H20         -5.9660    -0.1750     1.5970 hc         1 MX8       0.045700
     45 H21         -3.3520    -1.6000     2.2770 hc         1 MX8       0.041033
     46 H22         -4.8070    -1.5560     3.2610 hc         1 MX8       0.041033
     47 H23         -4.8260    -2.3840     1.7040 hc         1 MX8       0.041033
     48 H24         -4.7090     1.9410     1.9490 hc         1 MX8       0.041033
     49 H25         -4.6290     0.9320     3.3850 hc         1 MX8       0.041033
     50 H26         -3.2440     1.0260     2.3120 hc         1 MX8       0.041033
     51 H27         -6.8690     0.0970    -0.6980 hn         1 MX8       0.339500
     52 H28         -7.0200     1.9250    -2.3700 ho         1 MX8       0.408000
@<TRIPOS>BOND
     1     1     2 1   
     2     1    25 1   
     3     1    26 1   
     4     1    27 1   
     5     2     3 1   
     6     2    28 1   
     7     2    29 1   
     8     3     4 1   
     9     3    30 1   
    10     3    31 1   
    11     4     5 1   
    12     4    32 1   
    13     4    33 1   
    14     5     6 1   
    15     5    34 1   
    16     5    35 1   
    17     6     7 1   
    18     6    36 1   
    19     6    37 1   
    20     7     8 1   
    21     8     9 ar  
    22     8    11 ar  
    23     9    10 ar  
    24     9    38 1   
    25    10    13 ar  
    26    10    39 1   
    27    11    12 ar  
    28    11    40 1   
    29    12    13 ar  
    30    12    41 1   
    31    13    14 1   
    32    14    15 2   
    33    14    16 1   
    34    16    17 1   
    35    16    42 1   
    36    17    18 1   
    37    17    21 1   
    38    17    43 1   
    39    18    19 1   
    40    18    20 1   
    41    18    44 1   
    42    19    45 1   
    43    19    46 1   
    44    19    47 1   
    45    20    48 1   
    46    20    49 1   
    47    20    50 1   
    48    21    22 2   
    49    21    23 1   
    50    23    24 1   
    51    23    51 1   
    52    24    52 1   
@<TRIPOS>SUBSTRUCTURE
     1 MX8         1 TEMP              0 ****  ****    0 ROOT
