@<TRIPOS>MOLECULE
MX9
   37    39     1     0     0
SMALL
No Charge or Current Charge


@<TRIPOS>ATOM
      1 C4           5.6930    -0.6510    26.4430 c3         1 MX9       0.217900
      2 C5           6.3120    -1.5780    24.3110 c          1 MX9       0.619700
      3 C6           7.3980    -1.6720    23.2660 ca         1 MX9      -0.189600
      4 C7           7.2270    -2.4220    22.0870 ca         1 MX9       0.046000
      5 C8           6.2450    -3.7960    20.4350 c          1 MX9       0.569000
      6 C10          8.2020    -2.5270    21.1140 ca         1 MX9      -0.201300
      7 C13          8.6410    -1.0080    23.4210 ca         1 MX9      -0.013000
      8 C15          7.5600     0.4980    29.5900 ca         1 MX9      -0.112000
      9 O2           5.3910    -4.4940    19.8980 o          1 MX9      -0.489000
     10 N            6.1330    -3.1630    21.6520 ns         1 MX9      -0.141000
     11 C9           7.7080    -3.3990    19.9630 c5         1 MX9       0.138600
     12 O3           8.5480    -4.5530    19.7910 oh         1 MX9      -0.620000
     13 C11          9.4300    -1.8660    21.2590 ca         1 MX9      -0.015000
     14 C12          9.6420    -1.1060    22.4270 ca         1 MX9      -0.165000
     15 O1           5.2280    -2.1370    24.2030 o          1 MX9      -0.518000
     16 O            6.6570    -0.8070    25.3890 os         1 MX9      -0.442100
     17 C3           6.3020     0.2410    27.5170 ca         1 MX9      -0.100300
     18 C2           6.1760     1.6420    27.4320 ca         1 MX9      -0.086000
     19 C14          6.9990    -0.3270    28.6010 ca         1 MX9      -0.087000
     20 C16          7.4280     1.8940    29.5010 ca         1 MX9      -0.097000
     21 C1           6.7380     2.4730    28.4200 ca         1 MX9      -0.080300
     22 C            6.5940     3.9840    28.3220 c3         1 MX9      -0.046800
     23 H1           4.7710    -0.1900    26.0630 h1         1 MX9       0.060200
     24 H2           5.4290    -1.6240    26.8780 h1         1 MX9       0.060200
     25 H3           8.8440    -0.4100    24.3080 ha         1 MX9       0.137000
     26 H4           8.0960     0.0560    30.4270 ha         1 MX9       0.116000
     27 H5           5.2930    -3.2350    22.2110 hn         1 MX9       0.206000
     28 H6           7.6250    -2.8150    19.0360 h1         1 MX9       0.069700
     29 H7           9.4530    -4.2210    19.6060 ho         1 MX9       0.450000
     30 H8          10.2000    -1.9350    20.4940 ha         1 MX9       0.118000
     31 H9          10.5870    -0.5850    22.5630 ha         1 MX9       0.124000
     32 H10          5.6400     2.0850    26.5940 ha         1 MX9       0.113000
     33 H11          7.1080    -1.4070    28.6760 ha         1 MX9       0.117000
     34 H12          7.8640     2.5260    30.2730 ha         1 MX9       0.113000
     35 H13          5.6700     4.3200    28.8060 hc         1 MX9       0.044033
     36 H14          7.4320     4.4990    28.8060 hc         1 MX9       0.044033
     37 H15          6.5650     4.3160    27.2770 hc         1 MX9       0.044033
@<TRIPOS>BOND
     1     1    16 1   
     2     1    17 1   
     3     1    23 1   
     4     1    24 1   
     5     2     3 1   
     6     2    15 2   
     7     2    16 1   
     8     3     4 ar  
     9     3     7 ar  
    10     4     6 ar  
    11     4    10 1   
    12     5     9 2   
    13     5    10 1   
    14     5    11 1   
    15     6    11 1   
    16     6    13 ar  
    17     7    14 ar  
    18     7    25 1   
    19     8    19 ar  
    20     8    20 ar  
    21     8    26 1   
    22    10    27 1   
    23    11    12 1   
    24    11    28 1   
    25    12    29 1   
    26    13    14 ar  
    27    13    30 1   
    28    14    31 1   
    29    17    18 ar  
    30    17    19 ar  
    31    18    21 ar  
    32    18    32 1   
    33    19    33 1   
    34    20    21 ar  
    35    20    34 1   
    36    21    22 1   
    37    22    35 1   
    38    22    36 1   
    39    22    37 1   
@<TRIPOS>SUBSTRUCTURE
     1 MX9         1 TEMP              0 ****  ****    0 ROOT
