@<TRIPOS>MOLECULE
MX9
   37    39     1     0     0
SMALL
abcg2


@<TRIPOS>ATOM
      1 C4           5.6870    -0.5000    26.3230 c3         1 MX9       0.217900
      2 C5           6.3650    -1.4620    24.2570 c          1 MX9       0.619700
      3 C6           7.4490    -1.6110    23.2670 ca         1 MX9      -0.189600
      4 C7           7.2550    -2.4010    22.1350 ca         1 MX9       0.046000
      5 C8           6.3270    -3.8410    20.6120 c          1 MX9       0.569000
      6 C10          8.2610    -2.5690    21.1770 ca         1 MX9      -0.201300
      7 C13          8.7060    -0.9960    23.4130 ca         1 MX9      -0.013000
      8 C15          7.6330     0.4570    29.4230 ca         1 MX9      -0.112000
      9 O2           5.5480    -4.6230    20.1070 o          1 MX9      -0.489000
     10 N            6.1300    -3.1320    21.7650 ns         1 MX9      -0.141000
     11 C9           7.7220    -3.4460    20.0730 c5         1 MX9       0.138600
     12 O3           8.4630    -4.6150    19.7790 oh         1 MX9      -0.620000
     13 C11          9.4850    -1.9590    21.3360 ca         1 MX9      -0.015000
     14 C12          9.7060    -1.1680    22.4720 ca         1 MX9      -0.165000
     15 O1           5.2720    -1.9930    24.1510 o          1 MX9      -0.518000
     16 O            6.7010    -0.6850    25.2910 os         1 MX9      -0.442100
     17 C3           6.2960     0.3120    27.4230 ca         1 MX9      -0.100300
     18 C2           6.1210     1.6930    27.4570 ca         1 MX9      -0.086000
     19 C14          7.0540    -0.3070    28.4170 ca         1 MX9      -0.087000
     20 C16          7.4510     1.8370    29.4440 ca         1 MX9      -0.097000
     21 C1           6.6890     2.4750    28.4640 ca         1 MX9      -0.080300
     22 C            6.4580     3.9620    28.5060 c3         1 MX9      -0.046800
     23 H1           4.8320     0.0030    25.8740 h1         1 MX9       0.060200
     24 H2           5.3780    -1.4850    26.6720 h1         1 MX9       0.060200
     25 H3           8.8840    -0.3820    24.2830 ha         1 MX9       0.137000
     26 H4           8.2230    -0.0210    30.1940 ha         1 MX9       0.116000
     27 H5           5.2990    -3.1790    22.3390 hn         1 MX9       0.206000
     28 H6           7.5550    -2.8540    19.1660 h1         1 MX9       0.069700
     29 H7           9.1550    -4.3880    19.1460 ho         1 MX9       0.450000
     30 H8          10.2660    -2.0900    20.5980 ha         1 MX9       0.118000
     31 H9          10.6640    -0.6850    22.6140 ha         1 MX9       0.124000
     32 H10          5.5280     2.1700    26.6840 ha         1 MX9       0.113000
     33 H11          7.1900    -1.3820    28.4000 ha         1 MX9       0.117000
     34 H12          7.9040     2.4270    30.2330 ha         1 MX9       0.113000
     35 H13          5.5150     4.1930    29.0100 hc         1 MX9       0.044033
     36 H14          7.2550     4.4690    29.0520 hc         1 MX9       0.044033
     37 H15          6.4020     4.3820    27.5010 hc         1 MX9       0.044033
@<TRIPOS>BOND
     1     1    16 1   
     2     1    17 1   
     3     1    23 1   
     4     1    24 1   
     5     2     3 1   
     6     2    15 2   
     7     2    16 1   
     8     3     4 ar  
     9     3     7 ar  
    10     4     6 ar  
    11     4    10 1   
    12     5     9 2   
    13     5    10 1   
    14     5    11 1   
    15     6    11 1   
    16     6    13 ar  
    17     7    14 ar  
    18     7    25 1   
    19     8    19 ar  
    20     8    20 ar  
    21     8    26 1   
    22    10    27 1   
    23    11    12 1   
    24    11    28 1   
    25    12    29 1   
    26    13    14 ar  
    27    13    30 1   
    28    14    31 1   
    29    17    18 ar  
    30    17    19 ar  
    31    18    21 ar  
    32    18    32 1   
    33    19    33 1   
    34    20    21 ar  
    35    20    34 1   
    36    21    22 1   
    37    22    35 1   
    38    22    36 1   
    39    22    37 1   
@<TRIPOS>SUBSTRUCTURE
     1 MX9         1 TEMP              0 ****  ****    0 ROOT
