@<TRIPOS>MOLECULE
MXA
   43    45     1     0     0
SMALL
bcc


@<TRIPOS>ATOM
      1 N1          -1.4370    -0.0920    -4.0140 nb         1 MXA      -0.799000
      2 C2          -0.4260    -0.5480    -4.7240 ca         1 MXA       0.958900
      3 N2          -0.6620    -0.9110    -6.0010 nv         1 MXA      -0.952500
      4 N3           0.8290    -0.7490    -4.2860 nb         1 MXA      -0.879000
      5 C4           1.1230    -0.3930    -3.0540 ca         1 MXA       0.770200
      6 N4           2.3640    -0.6940    -2.6390 nv         1 MXA      -0.956500
      7 C4A          0.1520     0.2710    -2.2120 ca         1 MXA      -0.399600
      8 C5           0.3830     0.8530    -0.9400 ca         1 MXA       0.034700
      9 C5M          1.7620     1.0580    -0.3840 c3         1 MXA      -0.068800
     10 C6          -0.7190     1.3020    -0.2260 ca         1 MXA      -0.242600
     11 C7          -1.9740     1.2190    -0.8450 ca         1 MXA       0.478200
     12 N8          -2.2000     0.7780    -2.0560 nb         1 MXA      -0.675000
     13 C8A         -1.1560     0.3100    -2.7620 ca         1 MXA       0.734300
     14 C9          -0.6370     1.8720     1.1680 c3         1 MXA       0.039200
     15 C1          -0.2480     0.8560     2.2130 ca         1 MXA      -0.075300
     16 C10         -1.0840    -0.2410     2.4850 ca         1 MXA       0.114100
     17 O2          -2.2370    -0.2950     1.7840 os         1 MXA      -0.315900
     18 C21         -3.1040    -1.3870     1.9940 c3         1 MXA       0.123700
     19 C3          -0.7030    -1.1750     3.4350 ca         1 MXA      -0.180000
     20 C11          0.4940    -1.0340     4.1380 ca         1 MXA      -0.177000
     21 C12          1.3140     0.0550     3.8930 ca         1 MXA       0.102100
     22 O5           2.4870     0.2960     4.5230 os         1 MXA      -0.319900
     23 C51          2.9190    -0.6290     5.4970 c3         1 MXA       0.125700
     24 C13          0.9270     0.9890     2.9280 ca         1 MXA      -0.132000
     25 HN21         0.1200    -1.0940    -6.6060 hn         1 MXA       0.439800
     26 HN22        -1.5220    -0.6260    -6.4350 hn         1 MXA       0.439800
     27 HN41         2.9140    -1.2780    -3.2480 hn         1 MXA       0.435800
     28 HN42         2.5950    -0.7450    -1.6640 hn         1 MXA       0.435800
     29 H5M1         2.1270     0.1800     0.1550 hc         1 MXA       0.051367
     30 H5M2         2.4790     1.3040    -1.1650 hc         1 MXA       0.051367
     31 H5M3         1.7780     1.8810     0.3260 hc         1 MXA       0.051367
     32 H7          -2.8430     1.5740    -0.2980 h4         1 MXA       0.020100
     33 H91         -1.6110     2.3000     1.4220 hc         1 MXA       0.055700
     34 H92          0.0680     2.7060     1.2050 hc         1 MXA       0.055700
     35 H211        -3.9510    -1.2420     1.3280 h1         1 MXA       0.041033
     36 H212        -2.6270    -2.3420     1.7550 h1         1 MXA       0.041033
     37 H213        -3.4700    -1.4280     3.0240 h1         1 MXA       0.041033
     38 H3          -1.3270    -2.0300     3.6580 ha         1 MXA       0.136000
     39 H4           0.7500    -1.7890     4.8690 ha         1 MXA       0.135000
     40 H511         3.8670    -0.2580     5.8800 h1         1 MXA       0.039033
     41 H512         2.2140    -0.7100     6.3290 h1         1 MXA       0.039033
     42 H513         3.0770    -1.6260     5.0760 h1         1 MXA       0.039033
     43 H6           1.5750     1.8370     2.7380 ha         1 MXA       0.143000
@<TRIPOS>BOND
     1     1     2 ar  
     2     1    13 ar  
     3     2     3 1   
     4     2     4 ar  
     5     3    25 1   
     6     3    26 1   
     7     4     5 ar  
     8     5     6 1   
     9     5     7 ar  
    10     6    27 1   
    11     6    28 1   
    12     7     8 ar  
    13     7    13 ar  
    14     8     9 1   
    15     8    10 ar  
    16     9    29 1   
    17     9    30 1   
    18     9    31 1   
    19    10    11 ar  
    20    10    14 1   
    21    11    12 ar  
    22    11    32 1   
    23    12    13 ar  
    24    14    15 1   
    25    14    33 1   
    26    14    34 1   
    27    15    16 ar  
    28    15    24 ar  
    29    16    17 1   
    30    16    19 ar  
    31    17    18 1   
    32    18    35 1   
    33    18    36 1   
    34    18    37 1   
    35    19    20 ar  
    36    19    38 1   
    37    20    21 ar  
    38    20    39 1   
    39    21    22 1   
    40    21    24 ar  
    41    22    23 1   
    42    23    40 1   
    43    23    41 1   
    44    23    42 1   
    45    24    43 1   
@<TRIPOS>SUBSTRUCTURE
     1 MXA         1 TEMP              0 ****  ****    0 ROOT
