@<TRIPOS>MOLECULE
MXA
   43    45     1     0     0
SMALL
No Charge or Current Charge


@<TRIPOS>ATOM
      1 N1          -1.4470    -0.1520    -4.0110 nb         1 MXA      -0.273000
      2 C2          -0.4320    -0.6570    -4.7100 ca         1 MXA       0.432900
      3 N2          -0.7260    -1.1430    -5.9350 nv         1 MXA      -1.062900
      4 N3           0.8370    -0.7500    -4.3420 nb         1 MXA      -0.353000
      5 C4           1.1250    -0.2640    -3.1360 ca         1 MXA       0.441900
      6 N4           2.4310    -0.4700    -2.8400 nv         1 MXA      -1.066900
      7 C4A          0.1520     0.3300    -2.2790 ca         1 MXA      -0.269000
      8 C5           0.4100     0.8950    -0.9840 ca         1 MXA       0.034700
      9 C5M          1.8240     1.0210    -0.3970 c3         1 MXA      -0.068800
     10 C6          -0.7010     1.3750    -0.2410 ca         1 MXA      -0.177300
     11 C7          -1.9710     1.3250    -0.8320 ca         1 MXA       0.149900
     12 N8          -2.2030     0.8400    -2.0570 nb         1 MXA      -0.149000
     13 C8A         -1.1870     0.3440    -2.7850 ca         1 MXA       0.143000
     14 C9          -0.6110     1.9380     1.1870 c3         1 MXA       0.039200
     15 C1          -0.2480     0.8770     2.2330 ca         1 MXA      -0.075300
     16 C10         -1.1000    -0.2250     2.4830 ca         1 MXA       0.114100
     17 O2          -2.2850    -0.3250     1.7770 os         1 MXA      -0.339100
     18 C21         -3.1940    -1.4270     1.9390 c3         1 MXA       0.146900
     19 C3          -0.7320    -1.1870     3.4520 ca         1 MXA      -0.162000
     20 C11          0.4680    -1.0510     4.1720 ca         1 MXA      -0.159000
     21 C12          1.3090     0.0560     3.9370 ca         1 MXA       0.102100
     22 O5           2.4930     0.2480     4.6200 os         1 MXA      -0.343100
     23 C51          2.9590    -0.6720     5.6240 c3         1 MXA       0.148900
     24 C13          0.9440     1.0110     2.9760 ca         1 MXA      -0.114000
     25 HN21         0.0460    -1.3150    -6.5740 hn         1 MXA       0.495000
     26 HN22        -1.6160    -0.8860    -6.3550 hn         1 MXA       0.495000
     27 HN41         2.9500    -1.0930    -3.4540 hn         1 MXA       0.491000
     28 HN42         2.7100    -0.4630    -1.8670 hn         1 MXA       0.491000
     29 H5M1         2.2010     0.0500    -0.0550 hc         1 MXA       0.051367
     30 H5M2         2.5230     1.4430    -1.1260 hc         1 MXA       0.051367
     31 H5M3         1.8840     1.7020     0.4540 hc         1 MXA       0.051367
     32 H7          -2.8500     1.6890    -0.3010 h4         1 MXA       0.020100
     33 H91         -1.5690     2.3870     1.4740 hc         1 MXA       0.055700
     34 H92          0.0940     2.7780     1.2170 hc         1 MXA       0.055700
     35 H211        -4.0590    -1.3060     1.2740 h1         1 MXA       0.041033
     36 H212        -2.7040    -2.3770     1.6880 h1         1 MXA       0.041033
     37 H213        -3.5640    -1.4810     2.9700 h1         1 MXA       0.041033
     38 H3          -1.3640    -2.0450     3.6630 ha         1 MXA       0.118000
     39 H4           0.7220    -1.8070     4.9090 ha         1 MXA       0.117000
     40 H511         3.9160    -0.3310     6.0380 h1         1 MXA       0.039033
     41 H512         2.2390    -0.7470     6.4490 h1         1 MXA       0.039033
     42 H513         3.1110    -1.6720     5.1970 h1         1 MXA       0.039033
     43 H6           1.5980     1.8630     2.8110 ha         1 MXA       0.125000
@<TRIPOS>BOND
     1     1     2 ar  
     2     1    13 ar  
     3     2     3 1   
     4     2     4 ar  
     5     3    25 1   
     6     3    26 1   
     7     4     5 ar  
     8     5     6 1   
     9     5     7 ar  
    10     6    27 1   
    11     6    28 1   
    12     7     8 ar  
    13     7    13 ar  
    14     8     9 1   
    15     8    10 ar  
    16     9    29 1   
    17     9    30 1   
    18     9    31 1   
    19    10    11 ar  
    20    10    14 1   
    21    11    12 ar  
    22    11    32 1   
    23    12    13 ar  
    24    14    15 1   
    25    14    33 1   
    26    14    34 1   
    27    15    16 ar  
    28    15    24 ar  
    29    16    17 1   
    30    16    19 ar  
    31    17    18 1   
    32    18    35 1   
    33    18    36 1   
    34    18    37 1   
    35    19    20 ar  
    36    19    38 1   
    37    20    21 ar  
    38    20    39 1   
    39    21    22 1   
    40    21    24 ar  
    41    22    23 1   
    42    23    40 1   
    43    23    41 1   
    44    23    42 1   
    45    24    43 1   
@<TRIPOS>SUBSTRUCTURE
     1 MXA         1 TEMP              0 ****  ****    0 ROOT
