@<TRIPOS>MOLECULE
MXB
   50    52     1     0     0
SMALL
No Charge or Current Charge


@<TRIPOS>ATOM
      1 N10        134.1250   112.0120    41.7380 na         1 MXB       0.125800
      2 C11        135.0200   110.8440    41.8380 c3         1 MXB       0.076600
      3 C17        139.1640   112.7200    40.4790 ce         1 MXB       0.327200
      4 C21        135.9290   110.1880    38.0500 ca         1 MXB      -0.102300
      5 C22        136.5510   108.9280    37.9130 ca         1 MXB      -0.097500
      6 C23        136.5490   108.2660    36.6730 ca         1 MXB      -0.108000
      7 C25        135.3120   110.1120    35.6860 ca         1 MXB      -0.108000
      8 C02        132.7040   115.4630    38.7840 cc         1 MXB       0.418800
      9 C04        132.0450   117.4730    39.2010 cd         1 MXB       0.233900
     10 C05        131.4260   116.6810    40.1330 cc         1 MXB      -0.224000
     11 C07        131.4420   114.1850    40.6110 c3         1 MXB       0.067300
     12 C08        132.5940   113.4320    41.2250 cc         1 MXB       0.171300
     13 C09        133.0450   112.1920    40.9000 cd         1 MXB      -0.208000
     14 C12        135.2570   110.0830    40.5090 c3         1 MXB      -0.110400
     15 C13        135.9230   110.9210    39.3900 c3         1 MXB       0.164000
     16 C24        135.9300   108.8570    35.5590 ca         1 MXB      -0.104000
     17 C26        135.3130   110.7750    36.9250 ca         1 MXB      -0.097500
     18 N03        132.8360   116.7120    38.3660 nd         1 MXB      -0.675000
     19 N06        131.8460   115.3950    39.8690 na         1 MXB      -0.164500
     20 N14        137.2860   111.3070    39.7540 ns         1 MXB      -0.495900
     21 N18        139.9870   111.7040    40.3960 n2         1 MXB      -0.467400
     22 N19        141.3020   111.8620    40.6830 nu         1 MXB      -0.335000
     23 N27        134.2790   113.1050    42.5520 nd         1 MXB      -0.192800
     24 N28        133.3470   113.9660    42.2320 nc         1 MXB      -0.327000
     25 O20        142.1960   110.7510    40.5490 oh         1 MXB      -0.434300
     26 H1         134.5840   110.1530    42.5700 h1         1 MXB       0.077200
     27 H2         135.9840   111.1790    42.2400 h1         1 MXB       0.077200
     28 H3         139.5060   113.7100    40.7920 h4         1 MXB       0.019800
     29 H4         137.0390   108.4590    38.7640 ha         1 MXB       0.111000
     30 H5         137.0300   107.2950    36.5750 ha         1 MXB       0.114500
     31 H6         134.8340   110.5710    34.8240 ha         1 MXB       0.114500
     32 H7         133.7740   114.5400    37.1550 hc         1 MXB       0.053033
     33 H8         134.2520   113.9740    38.7650 hc         1 MXB       0.053033
     34 H9         132.7170   113.4360    38.0490 hc         1 MXB       0.053033
     35 H10        131.9650   118.5470    39.0850 h4         1 MXB       0.034100
     36 H11        130.7440   116.9360    40.9340 h4         1 MXB       0.152000
     37 H12        130.7440   114.4730    41.4060 h1         1 MXB       0.063700
     38 H13        130.9040   113.5190    39.9240 h1         1 MXB       0.063700
     39 H14        132.7050   111.4710    40.1680 h4         1 MXB       0.167000
     40 H15        134.2980   109.6970    40.1440 hc         1 MXB       0.063200
     41 H16        135.8780   109.2050    40.7220 hc         1 MXB       0.063200
     42 H17        135.3270   111.8350    39.2590 h1         1 MXB       0.082700
     43 H18        135.9290   108.3430    34.6000 ha         1 MXB       0.115000
     44 H19        134.8330   111.7480    37.0080 ha         1 MXB       0.111000
     45 H20        138.0180   110.6070    39.6970 hn         1 MXB       0.334500
     46 H21        141.7760   112.7430    40.9600 hn         1 MXB       0.447000
     47 H22        142.1710   110.2890    41.4210 ho         1 MXB       0.467000
     48 C15        137.6890   112.5710    40.1540 c          1 MXB       0.526800
     49 C01        133.3990   114.2870    38.1540 c3         1 MXB      -0.121400
     50 O16        136.8920   113.5000    40.2310 o          1 MXB      -0.575100
@<TRIPOS>BOND
     1     1     2 1   
     2     1    13 1   
     3     1    23 1   
     4     2    14 1   
     5     2    26 1   
     6     2    27 1   
     7     3    21 2   
     8     3    28 1   
     9     3    48 1   
    10     4     5 ar  
    11     4    15 1   
    12     4    17 ar  
    13     5     6 ar  
    14     5    29 1   
    15     6    16 ar  
    16     6    30 1   
    17     7    16 ar  
    18     7    17 ar  
    19     7    31 1   
    20     8    18 2   
    21     8    19 1   
    22     8    49 1   
    23     9    10 2   
    24     9    18 1   
    25     9    35 1   
    26    10    19 1   
    27    10    36 1   
    28    11    12 1   
    29    11    19 1   
    30    11    37 1   
    31    11    38 1   
    32    12    13 2   
    33    12    24 1   
    34    13    39 1   
    35    14    15 1   
    36    14    40 1   
    37    14    41 1   
    38    15    20 1   
    39    15    42 1   
    40    16    43 1   
    41    17    44 1   
    42    20    45 1   
    43    20    48 1   
    44    21    22 1   
    45    22    25 1   
    46    22    46 1   
    47    23    24 2   
    48    25    47 1   
    49    32    49 1   
    50    33    49 1   
    51    34    49 1   
    52    48    50 2   
@<TRIPOS>SUBSTRUCTURE
     1 MXB         1 TEMP              0 ****  ****    0 ROOT
