@<TRIPOS>MOLECULE
MXB
   50    52     1     0     0
SMALL
bcc


@<TRIPOS>ATOM
      1 N10        134.2950   111.7510    41.6260 na         1 MXB       0.104400
      2 C11        134.9490   110.4580    41.6900 c3         1 MXB       0.047300
      3 C17        138.7620   112.9220    40.1820 ce         1 MXB       0.327200
      4 C21        135.8770   110.1670    37.9320 ca         1 MXB      -0.102300
      5 C22        137.0240   109.4940    37.5270 ca         1 MXB      -0.115500
      6 C23        137.0720   108.8650    36.2900 ca         1 MXB      -0.126000
      7 C25        134.8230   109.5710    35.8400 ca         1 MXB      -0.126000
      8 C02        132.8940   115.4000    38.7830 cc         1 MXB       0.418800
      9 C04        132.8290   117.4560    39.3730 cd         1 MXB       0.299200
     10 C05        132.3060   116.7510    40.4140 cc         1 MXB      -0.256600
     11 C07        131.8930   114.3140    40.8150 c3         1 MXB       0.038000
     12 C08        133.0100   113.4100    41.2100 cc         1 MXB       0.236600
     13 C09        133.0780   112.0440    41.1380 cd         1 MXB      -0.240600
     14 C12        135.1440   109.8530    40.3030 c3         1 MXB      -0.110400
     15 C13        135.7720   110.8180    39.2950 c3         1 MXB       0.164000
     16 C24        135.9720   108.9000    35.4430 ca         1 MXB      -0.122000
     17 C26        134.7790   110.2000    37.0760 ca         1 MXB      -0.115500
     18 N03        133.1900   116.6070    38.3650 nd         1 MXB      -0.675000
     19 N06        132.3460   115.4390    40.0240 na         1 MXB      -0.185900
     20 N14        137.0270   111.3120    39.7980 ns         1 MXB      -0.562900
     21 N18        139.3970   112.0530    40.8590 n2         1 MXB      -0.467400
     22 N19        140.5200   112.3820    41.4860 nu         1 MXB      -0.279800
     23 N27        134.9420   112.8520    41.9650 nd         1 MXB      -0.192800
     24 N28        134.1730   113.8570    41.7270 nc         1 MXB      -0.327000
     25 O20        141.2930   111.2720    41.7570 oh         1 MXB      -0.395300
     26 H1         134.3530   109.7880    42.3080 h1         1 MXB       0.077200
     27 H2         135.8980   110.6210    42.1960 h1         1 MXB       0.077200
     28 H3         139.1050   113.9430    40.0170 h4         1 MXB       0.019800
     29 H4         137.8930   109.4630    38.1730 ha         1 MXB       0.129000
     30 H5         137.9720   108.3450    35.9870 ha         1 MXB       0.132500
     31 H6         133.9620   109.6090    35.1850 ha         1 MXB       0.132500
     32 H7         133.2490   114.3650    36.9740 hc         1 MXB       0.053033
     33 H8         134.0820   113.6740    38.3620 hc         1 MXB       0.053033
     34 H9         132.3510   113.4120    38.1550 hc         1 MXB       0.053033
     35 H10        132.9600   118.5250    39.2950 h4         1 MXB       0.034100
     36 H11        131.9120   117.0500    41.3710 h4         1 MXB       0.170000
     37 H12        131.3970   114.7200    41.6970 h1         1 MXB       0.063700
     38 H13        131.1390   113.7500    40.2650 h1         1 MXB       0.063700
     39 H14        132.3820   111.2980    40.7910 h4         1 MXB       0.185000
     40 H15        134.1850   109.5140    39.9060 hc         1 MXB       0.063200
     41 H16        135.7630   108.9580    40.4090 hc         1 MXB       0.063200
     42 H17        135.1070   111.6800    39.1960 h1         1 MXB       0.082700
     43 H18        136.0110   108.4100    34.4790 ha         1 MXB       0.133000
     44 H19        133.8790   110.7250    37.3770 ha         1 MXB       0.129000
     45 H20        137.6070   110.7120    40.3640 hn         1 MXB       0.334500
     46 H21        141.0990   113.0740    41.0170 hn         1 MXB       0.391800
     47 H22        141.2450   111.1630    42.7140 ho         1 MXB       0.428000
     48 C15        137.4660   112.5590    39.5570 c          1 MXB       0.593800
     49 C01        133.1510   114.1420    38.0340 c3         1 MXB      -0.121400
     50 O16        136.8660   113.3740    38.8700 o          1 MXB      -0.575100
@<TRIPOS>BOND
     1     1     2 1   
     2     1    13 1   
     3     1    23 1   
     4     2    14 1   
     5     2    26 1   
     6     2    27 1   
     7     3    21 2   
     8     3    28 1   
     9     3    48 1   
    10     4     5 ar  
    11     4    15 1   
    12     4    17 ar  
    13     5     6 ar  
    14     5    29 1   
    15     6    16 ar  
    16     6    30 1   
    17     7    16 ar  
    18     7    17 ar  
    19     7    31 1   
    20     8    18 2   
    21     8    19 1   
    22     8    49 1   
    23     9    10 2   
    24     9    18 1   
    25     9    35 1   
    26    10    19 1   
    27    10    36 1   
    28    11    12 1   
    29    11    19 1   
    30    11    37 1   
    31    11    38 1   
    32    12    13 2   
    33    12    24 1   
    34    13    39 1   
    35    14    15 1   
    36    14    40 1   
    37    14    41 1   
    38    15    20 1   
    39    15    42 1   
    40    16    43 1   
    41    17    44 1   
    42    20    45 1   
    43    20    48 1   
    44    21    22 1   
    45    22    25 1   
    46    22    46 1   
    47    23    24 2   
    48    25    47 1   
    49    32    49 1   
    50    33    49 1   
    51    34    49 1   
    52    48    50 2   
@<TRIPOS>SUBSTRUCTURE
     1 MXB         1 TEMP              0 ****  ****    0 ROOT
