@<TRIPOS>MOLECULE
MXC
   46    47     1     0     0
SMALL
No Charge or Current Charge


@<TRIPOS>ATOM
      1 C1          -4.2190     1.5880    -0.7220 cc         1 MXC      -0.177600
      2 C2          -4.2640     0.2630    -1.1240 cd         1 MXC      -0.008000
      3 C3          -3.2140    -0.5590    -0.6290 cd         1 MXC      -0.161000
      4 C4          -3.0380    -1.9060    -0.7870 cc         1 MXC      -0.179000
      5 C5          -1.8620    -2.2760    -0.0570 cc         1 MXC      -0.254200
      6 C6          -1.3120    -1.1570     0.5260 cd         1 MXC       0.131900
      7 C7          -2.1560     1.1760     0.6780 cd         1 MXC      -0.096000
      8 C8          -3.1620     2.0130     0.1960 cc         1 MXC      -0.144000
      9 C9          -5.2790     2.5170    -1.2110 c          1 MXC       0.624700
     10 C10         -1.3130    -3.6470     0.0390 c          1 MXC       0.607100
     11 C11          0.8980    -0.0010     1.2100 c3         1 MXC       0.046500
     12 C12          1.1380     0.6750     2.6140 c          1 MXC       0.704000
     13 C13          2.2360    -0.4970     0.5410 c3         1 MXC       0.066300
     14 C14          3.0050    -1.4680     1.4880 c3         1 MXC      -0.075100
     15 C15          3.1270     0.7390     0.1770 c3         1 MXC       0.204600
     16 C16          5.3360     1.2860    -0.5680 c          1 MXC       0.649100
     17 N1          -2.1650    -0.1130     0.1370 na         1 MXC       0.130100
     18 N2          -5.2130     3.7990    -0.7920 nt         1 MXC      -0.601000
     19 N3          -0.1460    -1.0830     1.2600 nu         1 MXC      -0.802200
     20 N4           6.5100     0.7320    -0.8950 nt         1 MXC      -0.611000
     21 O1          -1.8200    -4.6270    -0.5000 o          1 MXC      -0.555100
     22 O2          -6.1870     2.1890    -1.9580 o          1 MXC      -0.624100
     23 O3           1.1010    -0.0230     3.6200 o          1 MXC      -0.704000
     24 O4           1.2140     1.8950     2.6530 o          1 MXC      -0.704000
     25 O7           4.4550     0.3210    -0.2030 os         1 MXC      -0.459100
     26 O8           5.1210     2.4840    -0.6010 o          1 MXC      -0.557000
     27 S1           1.8210    -1.4830    -1.0180 s4         1 MXC       0.469500
     28 H2          -5.0510    -0.1340    -1.7580 ha         1 MXC       0.140000
     29 H4          -3.6780    -2.5900    -1.3430 ha         1 MXC       0.211000
     30 H7          -1.3960     1.4470     1.3980 h4         1 MXC       0.188000
     31 H8          -3.1610     3.0380     0.5530 ha         1 MXC       0.125000
     32 H10         -0.3840    -3.7500     0.6430 h4         1 MXC       0.004200
     33 H11          0.5170     0.8060     0.5730 h1         1 MXC       0.050700
     34 H14          2.3560    -2.2840     1.8270 hc         1 MXC       0.046033
     35 H14A         3.8610    -1.9240     0.9760 hc         1 MXC       0.046033
     36 H14B         3.3890    -0.9440     2.3710 hc         1 MXC       0.046033
     37 H15          2.6550     1.3170    -0.6290 h1         1 MXC       0.080700
     38 H15A         3.1970     1.4030     1.0480 h1         1 MXC       0.080700
     39 HN2         -4.4710     4.0940    -0.1790 hn         1 MXC       0.309500
     40 HN2A        -5.9140     4.4540    -1.1050 hn         1 MXC       0.309500
     41 HN3         -0.0660    -1.7560     2.0310 hn         1 MXC       0.498000
     42 HN4          6.6100    -0.2700    -0.8490 hn         1 MXC       0.321000
     43 HN4A         7.2730     1.3200    -1.1910 hn         1 MXC       0.321000
     44 HO6          0.1300    -0.1760    -1.2100 ho         1 MXC       0.465000
     45 O5           3.0860    -1.7280    -1.8090 o          1 MXC      -0.546000
     46 O6           0.9570    -0.2140    -1.7320 oh         1 MXC      -0.618800
@<TRIPOS>BOND
     1     1     2 2   
     2     1     8 1   
     3     1     9 1   
     4     2     3 1   
     5     2    28 1   
     6     3     4 2   
     7     3    17 1   
     8     4     5 1   
     9     4    29 1   
    10     5     6 2   
    11     5    10 1   
    12     6    17 1   
    13     6    19 1   
    14     7     8 2   
    15     7    17 1   
    16     7    30 1   
    17     8    31 1   
    18     9    18 1   
    19     9    22 2   
    20    10    21 2   
    21    10    32 1   
    22    11    12 1   
    23    11    13 1   
    24    11    19 1   
    25    11    33 1   
    26    12    23 1   
    27    12    24 1   
    28    13    14 1   
    29    13    15 1   
    30    13    27 1   
    31    14    34 1   
    32    14    35 1   
    33    14    36 1   
    34    15    25 1   
    35    15    37 1   
    36    15    38 1   
    37    16    20 1   
    38    16    25 1   
    39    16    26 2   
    40    18    39 1   
    41    18    40 1   
    42    19    41 1   
    43    20    42 1   
    44    20    43 1   
    45    27    45 2   
    46    27    46 1   
    47    44    46 1   
@<TRIPOS>SUBSTRUCTURE
     1 MXC         1 TEMP              0 ****  ****    0 ROOT
