@<TRIPOS>MOLECULE
MXC
   46    47     1     0     0
SMALL
abcg2


@<TRIPOS>ATOM
      1 C1          -4.3350     1.5180    -0.4080 cc         1 MXC      -0.177600
      2 C2          -4.2070     0.2960    -1.0000 cd         1 MXC      -0.008000
      3 C3          -3.1340    -0.5540    -0.6650 cd         1 MXC      -0.161000
      4 C4          -2.7490    -1.8120    -1.0790 cc         1 MXC      -0.179000
      5 C5          -1.5750    -2.1310    -0.3710 cc         1 MXC      -0.254200
      6 C6          -1.2420    -1.0640     0.4610 cd         1 MXC       0.131900
      7 C7          -2.3660     1.0860     0.9320 cd         1 MXC      -0.096000
      8 C8          -3.3890     1.8990     0.5980 cc         1 MXC      -0.144000
      9 C9          -5.4770     2.3860    -0.8180 c          1 MXC       0.624700
     10 C10         -0.8320    -3.3770    -0.4360 c          1 MXC       0.607100
     11 C11          0.8000     0.1610     1.0540 c3         1 MXC       0.046500
     12 C12          0.8770     1.0990     2.3010 c          1 MXC       0.704000
     13 C13          2.2020    -0.4050     0.6980 c3         1 MXC       0.066300
     14 C14          2.7310    -1.3260     1.7880 c3         1 MXC      -0.075100
     15 C15          3.1920     0.7120     0.3750 c3         1 MXC       0.204600
     16 C16          5.2670     0.9460    -0.7140 c          1 MXC       0.649100
     17 N1          -2.2080    -0.1160     0.2880 na         1 MXC       0.130100
     18 N2          -5.3840     3.6840    -0.4880 nt         1 MXC      -0.601000
     19 N3          -0.1440    -0.9270     1.2970 nu         1 MXC      -0.802200
     20 N4           6.2460     0.2550    -1.3210 nt         1 MXC      -0.611000
     21 O1          -1.0980    -4.2850    -1.1960 o          1 MXC      -0.555100
     22 O2          -6.4400     1.9240    -1.4160 o          1 MXC      -0.624100
     23 O3           0.3390     0.6720     3.3400 o          1 MXC      -0.704000
     24 O4           1.4570     2.1830     2.1390 o          1 MXC      -0.704000
     25 O7           4.3280     0.1230    -0.2430 os         1 MXC      -0.459100
     26 O8           5.2250     2.1560    -0.6110 o          1 MXC      -0.557000
     27 S1           1.8960    -1.4960    -0.7810 s4         1 MXC       0.469500
     28 H2          -4.9150    -0.0430    -1.7430 ha         1 MXC       0.140000
     29 H4          -3.2650    -2.4210    -1.8030 ha         1 MXC       0.211000
     30 H7          -1.6690     1.3090     1.7240 h4         1 MXC       0.188000
     31 H8          -3.4880     2.8230     1.1510 ha         1 MXC       0.125000
     32 H10         -0.0030    -3.4640     0.2840 h4         1 MXC       0.004200
     33 H11          0.4660     0.7730     0.2080 h1         1 MXC       0.050700
     34 H14          2.0450    -2.1480     1.9930 hc         1 MXC       0.046033
     35 H14A         3.6980    -1.7500     1.5230 hc         1 MXC       0.046033
     36 H14B         2.8580    -0.7610     2.7130 hc         1 MXC       0.046033
     37 H15          2.7420     1.4640    -0.2720 h1         1 MXC       0.080700
     38 H15A         3.4840     1.2030     1.3030 h1         1 MXC       0.080700
     39 HN2         -4.5310     4.1000    -0.1570 hn         1 MXC       0.309500
     40 HN2A        -6.1020     4.3210    -0.7940 hn         1 MXC       0.309500
     41 HN3         -0.3750    -0.9340     2.2880 hn         1 MXC       0.498000
     42 HN4          6.2580    -0.7500    -1.3250 hn         1 MXC       0.321000
     43 HN4A         7.0580     0.7400    -1.6580 hn         1 MXC       0.321000
     44 HO6          1.2820    -0.4930    -2.5930 ho         1 MXC       0.465000
     45 O5           3.0880    -2.3530    -0.9890 o          1 MXC      -0.546000
     46 O6           1.9130    -0.2760    -1.8910 oh         1 MXC      -0.618800
@<TRIPOS>BOND
     1     1     2 2   
     2     1     8 1   
     3     1     9 1   
     4     2     3 1   
     5     2    28 1   
     6     3     4 2   
     7     3    17 1   
     8     4     5 1   
     9     4    29 1   
    10     5     6 2   
    11     5    10 1   
    12     6    17 1   
    13     6    19 1   
    14     7     8 2   
    15     7    17 1   
    16     7    30 1   
    17     8    31 1   
    18     9    18 1   
    19     9    22 2   
    20    10    21 2   
    21    10    32 1   
    22    11    12 1   
    23    11    13 1   
    24    11    19 1   
    25    11    33 1   
    26    12    23 1   
    27    12    24 1   
    28    13    14 1   
    29    13    15 1   
    30    13    27 1   
    31    14    34 1   
    32    14    35 1   
    33    14    36 1   
    34    15    25 1   
    35    15    37 1   
    36    15    38 1   
    37    16    20 1   
    38    16    25 1   
    39    16    26 2   
    40    18    39 1   
    41    18    40 1   
    42    19    41 1   
    43    20    42 1   
    44    20    43 1   
    45    27    45 2   
    46    27    46 1   
    47    44    46 1   
@<TRIPOS>SUBSTRUCTURE
     1 MXC         1 TEMP              0 ****  ****    0 ROOT
