@<TRIPOS>MOLECULE
MXD
   30    31     1     0     0
SMALL
bcc


@<TRIPOS>ATOM
      1 NAO         -2.8950     2.1470     0.0430 nv         1 MXD      -0.402200
      2 CAE         -2.0490     1.1090    -0.0010 ca         1 MXD       0.147500
      3 CAF         -0.6800     1.2060     0.2130 ca         1 MXD      -0.473300
      4 NAC         -2.6060    -0.0930    -0.2930 na         1 MXD      -0.154200
      5 OAN         -3.9060    -0.2080    -0.4750 o          1 MXD      -0.452000
      6 CAA         -1.7950    -1.1790    -0.3580 ca         1 MXD       0.661000
      7 NAM         -2.3990    -2.3370    -0.6640 nv         1 MXD      -0.498900
      8 NAB         -0.4950    -1.1330    -0.1700 nb         1 MXD      -0.858000
      9 CAD          0.0900     0.0420     0.1050 ca         1 MXD       0.779200
     10 NAI          1.4400     0.0300     0.2530 nh         1 MXD      -0.773300
     11 CAG          2.1570    -1.2180     0.4780 c6         1 MXD       0.221800
     12 CAK          2.1890     1.2230     0.6070 c6         1 MXD       0.221800
     13 CAL          3.5410     1.2550    -0.0960 c6         1 MXD      -0.088900
     14 CAJ          4.3350    -0.0190     0.1470 c6         1 MXD      -0.075400
     15 CAH          3.4970    -1.2290    -0.2420 c6         1 MXD      -0.088900
     16 HAO1        -2.5870     3.0130     0.4480 hn         1 MXD       0.294700
     17 HAO2        -3.8800     1.9380     0.0660 hn         1 MXD       0.294700
     18 HAF         -0.2760     2.1710     0.4760 ha         1 MXD       0.151000
     19 HAM1        -1.8870    -3.1880    -0.5080 hn         1 MXD       0.299700
     20 HAM2        -3.4030    -2.3660    -0.6000 hn         1 MXD       0.299700
     21 HAG1         2.3240    -1.3470     1.5560 h1         1 MXD       0.050700
     22 HAG2         1.5390    -2.0450     0.1450 h1         1 MXD       0.050700
     23 HAK1         1.6350     2.1120     0.3200 h1         1 MXD       0.050700
     24 HAK2         2.3320     1.2680     1.6940 h1         1 MXD       0.050700
     25 HAL1         4.0890     2.1310     0.2570 hc         1 MXD       0.051200
     26 HAL2         3.3790     1.3910    -1.1690 hc         1 MXD       0.051200
     27 HAJ1         4.6070    -0.0870     1.2060 hc         1 MXD       0.042700
     28 HAJ2         5.2690     0.0010    -0.4180 hc         1 MXD       0.042700
     29 HAH1         4.0150    -2.1580     0.0040 hc         1 MXD       0.051200
     30 HAH2         3.3270    -1.2330    -1.3220 hc         1 MXD       0.051200
@<TRIPOS>BOND
     1     1     2 1   
     2     1    16 1   
     3     1    17 1   
     4     2     3 ar  
     5     2     4 2   
     6     3     9 ar  
     7     3    18 1   
     8     4     5 1   
     9     4     6 1   
    10     6     7 1   
    11     6     8 ar  
    12     7    19 1   
    13     7    20 1   
    14     8     9 ar  
    15     9    10 1   
    16    10    11 1   
    17    10    12 1   
    18    11    15 1   
    19    11    21 1   
    20    11    22 1   
    21    12    13 1   
    22    12    23 1   
    23    12    24 1   
    24    13    14 1   
    25    13    25 1   
    26    13    26 1   
    27    14    15 1   
    28    14    27 1   
    29    14    28 1   
    30    15    29 1   
    31    15    30 1   
@<TRIPOS>SUBSTRUCTURE
     1 MXD         1 TEMP              0 ****  ****    0 ROOT
