@<TRIPOS>MOLECULE
MXD
   30    31     1     0     0
SMALL
No Charge or Current Charge


@<TRIPOS>ATOM
      1 NAO         -2.9390     2.1020     0.7500 nv         1 MXD      -0.502800
      2 CAE         -2.1620     1.0570     0.3110 ca         1 MXD       0.147500
      3 CAF         -0.7700     1.1100     0.4380 ca         1 MXD      -0.390000
      4 NAC         -2.7470    -0.0770    -0.2630 na         1 MXD       0.035800
      5 OAN         -3.9970    -0.1910    -0.3720 o          1 MXD      -0.642000
      6 CAA         -1.8430    -1.0850    -0.6720 ca         1 MXD       0.661000
      7 NAM         -2.2880    -2.2320    -1.2360 nv         1 MXD      -0.599500
      8 NAB         -0.5130    -1.0680    -0.5600 nb         1 MXD      -0.858000
      9 CAD          0.0110     0.0320    -0.0090 ca         1 MXD       0.713900
     10 NAI          1.4070     0.0210     0.0820 nh         1 MXD      -0.773300
     11 CAG          2.1070    -1.1430     0.7020 c6         1 MXD       0.221800
     12 CAK          2.1670     1.3000     0.1730 c6         1 MXD       0.221800
     13 CAL          3.5930     1.1530    -0.4110 c6         1 MXD      -0.088900
     14 CAJ          4.3560    -0.0180     0.2480 c6         1 MXD      -0.075400
     15 CAH          3.5320    -1.3190     0.1210 c6         1 MXD      -0.088900
     16 HAO1        -2.5240     2.9220     1.1740 hn         1 MXD       0.345000
     17 HAO2        -3.9470     2.0460     0.6610 hn         1 MXD       0.345000
     18 HAF         -0.3010     1.9750     0.8930 ha         1 MXD       0.133000
     19 HAM1        -1.6350    -2.9950    -1.3200 hn         1 MXD       0.350000
     20 HAM2        -3.2770    -2.4250    -1.1940 hn         1 MXD       0.350000
     21 HAG1         2.1780    -0.9950     1.7900 h1         1 MXD       0.050700
     22 HAG2         1.5530    -2.0790     0.5410 h1         1 MXD       0.050700
     23 HAK1         1.6500     2.0950    -0.3850 h1         1 MXD       0.050700
     24 HAK2         2.2340     1.6230     1.2230 h1         1 MXD       0.050700
     25 HAL1         4.1490     2.0900    -0.2710 hc         1 MXD       0.051200
     26 HAL2         3.5270     0.9880    -1.4950 hc         1 MXD       0.051200
     27 HAJ1         4.5410     0.2050     1.3080 hc         1 MXD       0.042700
     28 HAJ2         5.3390    -0.1450    -0.2260 hc         1 MXD       0.042700
     29 HAH1         4.0440    -2.1410     0.6390 hc         1 MXD       0.051200
     30 HAH2         3.4600    -1.6110    -0.9360 hc         1 MXD       0.051200
@<TRIPOS>BOND
     1     1     2 1   
     2     1    16 1   
     3     1    17 1   
     4     2     3 ar  
     5     2     4 2   
     6     3     9 ar  
     7     3    18 1   
     8     4     5 1   
     9     4     6 1   
    10     6     7 1   
    11     6     8 ar  
    12     7    19 1   
    13     7    20 1   
    14     8     9 ar  
    15     9    10 1   
    16    10    11 1   
    17    10    12 1   
    18    11    15 1   
    19    11    21 1   
    20    11    22 1   
    21    12    13 1   
    22    12    23 1   
    23    12    24 1   
    24    13    14 1   
    25    13    25 1   
    26    13    26 1   
    27    14    15 1   
    28    14    27 1   
    29    14    28 1   
    30    15    29 1   
    31    15    30 1   
@<TRIPOS>SUBSTRUCTURE
     1 MXD         1 TEMP              0 ****  ****    0 ROOT
