@<TRIPOS>MOLECULE
MXE
   13    12     1     0     0
SMALL
No Charge or Current Charge


@<TRIPOS>ATOM
      1 O1           0.6570    -0.2880    -1.9310 oh         1 MXE      -0.708000
      2 C1          -0.5480     0.2250    -1.3310 c3         1 MXE       0.163600
      3 C2          -0.7290    -0.2890     0.1240 c3         1 MXE       0.157600
      4 O2           0.2990     0.2780     0.9630 os         1 MXE      -0.441000
      5 C3           0.2350    -0.1290     2.3390 c3         1 MXE       0.145900
      6 HO1          0.7310     0.1260    -2.8230 ho         1 MXE       0.500000
      7 H11         -1.4210    -0.0870    -1.9200 h1         1 MXE       0.023700
      8 H12         -0.5350     1.3240    -1.3210 h1         1 MXE       0.023700
      9 H21         -0.6820    -1.3860     0.1320 h1         1 MXE       0.026700
     10 H22         -1.7220     0.0110     0.4830 h1         1 MXE       0.026700
     11 H31          1.0440     0.3390     2.9140 h1         1 MXE       0.027367
     12 H32         -0.7210     0.1670     2.7900 h1         1 MXE       0.027367
     13 H33          0.3390    -1.2190     2.4290 h1         1 MXE       0.027367
@<TRIPOS>BOND
     1     1     2 1   
     2     1     6 1   
     3     2     3 1   
     4     2     7 1   
     5     2     8 1   
     6     3     4 1   
     7     3     9 1   
     8     3    10 1   
     9     4     5 1   
    10     5    11 1   
    11     5    12 1   
    12     5    13 1   
@<TRIPOS>SUBSTRUCTURE
     1 MXE         1 TEMP              0 ****  ****    0 ROOT
