@<TRIPOS>MOLECULE
MXE
   13    12     1     0     0
SMALL
abcg2


@<TRIPOS>ATOM
      1 O1           0.6660    -0.2500    -1.8330 oh         1 MXE      -0.708000
      2 C1          -0.5410     0.2370    -1.2920 c3         1 MXE       0.163600
      3 C2          -0.6970    -0.2550     0.1240 c3         1 MXE       0.157600
      4 O2           0.3060     0.2970     0.9380 os         1 MXE      -0.441000
      5 C3           0.2190    -0.1400     2.2690 c3         1 MXE       0.145900
      6 HO1          0.7260     0.0470    -2.7440 ho         1 MXE       0.500000
      7 H11         -1.4140    -0.1150    -1.8570 h1         1 MXE       0.023700
      8 H12         -0.5790     1.3340    -1.3030 h1         1 MXE       0.023700
      9 H21         -0.6600    -1.3540     0.1450 h1         1 MXE       0.026700
     10 H22         -1.6970     0.0350     0.4780 h1         1 MXE       0.026700
     11 H31          1.0260     0.3270     2.8330 h1         1 MXE       0.027367
     12 H32         -0.7340     0.1390     2.7350 h1         1 MXE       0.027367
     13 H33          0.3260    -1.2290     2.3550 h1         1 MXE       0.027367
@<TRIPOS>BOND
     1     1     2 1   
     2     1     6 1   
     3     2     3 1   
     4     2     7 1   
     5     2     8 1   
     6     3     4 1   
     7     3     9 1   
     8     3    10 1   
     9     4     5 1   
    10     5    11 1   
    11     5    12 1   
    12     5    13 1   
@<TRIPOS>SUBSTRUCTURE
     1 MXE         1 TEMP              0 ****  ****    0 ROOT
