@<TRIPOS>MOLECULE
MXF
   50    51     1     0     0
SMALL
No Charge or Current Charge


@<TRIPOS>ATOM
      1 C1          -4.6170     2.5580    -2.4080 cc         1 MXF      -0.118000
      2 C2          -4.9730     1.2270    -2.4680 cd         1 MXF      -0.088000
      3 C3          -4.3190     0.4030    -1.5120 cd         1 MXF      -0.137000
      4 C4          -4.5050    -0.9280    -1.2610 cc         1 MXF      -0.205000
      5 C5          -3.6470    -1.2870    -0.1700 cc         1 MXF      -0.268200
      6 C6          -2.9270    -0.1850     0.2320 cd         1 MXF       0.134900
      7 C7          -3.0740     2.2020    -0.4650 cd         1 MXF      -0.090000
      8 C8          -3.6900     3.0310    -1.4030 cc         1 MXF      -0.158000
      9 C10         -3.5370    -2.6400     0.4210 c          1 MXF       0.606100
     10 C11         -0.6600     0.6360     1.1690 c3         1 MXF       0.053500
     11 C12         -0.5490     1.6930     2.3350 c          1 MXF       0.708000
     12 C13          0.5990    -0.3100     1.0910 c3         1 MXF       0.065300
     13 C14          0.8820    -0.9770     2.4700 c3         1 MXF      -0.073100
     14 C15          1.8390     0.5180     0.6100 c3         1 MXF       0.181600
     15 C16          4.2210     0.3450     0.3930 c          1 MXF       0.647100
     16 N1          -3.3550     0.8380    -0.6280 na         1 MXF       0.126100
     17 N3          -1.9510    -0.1380     1.2050 nu         1 MXF      -0.820200
     18 N4           5.2500    -0.5170     0.6390 ns         1 MXF      -0.512900
     19 O1          -4.1850    -3.6100     0.0380 o          1 MXF      -0.560100
     20 O3          -1.0150     1.4110     3.4320 o          1 MXF      -0.703000
     21 O4          -0.1270     2.8070     2.0570 o          1 MXF      -0.703000
     22 O7           3.0570    -0.2320     0.7940 os         1 MXF      -0.443100
     23 O8           4.3350     1.4550    -0.1030 o          1 MXF      -0.552000
     24 S1           0.2560    -1.7180    -0.1230 s4         1 MXF       0.466500
     25 C17          6.6560    -0.2560     0.3170 c3         1 MXF       0.123000
     26 C18          6.9440    -0.2960    -1.2070 c3         1 MXF       0.129800
     27 N5           8.3730    -0.0740    -1.5300 n8         1 MXF      -0.994200
     28 H1          -5.0600     3.2750    -3.0920 ha         1 MXF       0.108000
     29 H2          -5.7070     0.8480    -3.1720 ha         1 MXF       0.115000
     30 H4          -5.1910    -1.6000    -1.7740 ha         1 MXF       0.207000
     31 H7          -2.4190     2.5230     0.3330 h4         1 MXF       0.177000
     32 H8          -3.4900     4.0980    -1.3730 ha         1 MXF       0.126000
     33 H10         -2.8120    -2.7390     1.2600 h4         1 MXF       0.002200
     34 H11         -0.6520     1.2340     0.2490 h1         1 MXF       0.053700
     35 H14         -0.0170    -1.4680     2.8600 hc         1 MXF       0.046033
     36 H14A         1.6620    -1.7440     2.3860 hc         1 MXF       0.046033
     37 H14B         1.2200    -0.2410     3.2090 hc         1 MXF       0.046033
     38 H15          1.7120     0.8010    -0.4430 h1         1 MXF       0.083200
     39 H15A         1.9010     1.4490     1.1880 h1         1 MXF       0.083200
     40 HN3         -2.2380    -0.4880     2.1270 hn         1 MXF       0.510000
     41 HN4          4.9930    -1.4040     1.0510 hn         1 MXF       0.326500
     42 HO6         -1.0280    -0.3130    -1.0960 ho         1 MXF       0.474000
     43 H17          6.9320     0.7280     0.7180 h1         1 MXF       0.051700
     44 H17A         7.2710    -1.0120     0.8230 h1         1 MXF       0.051700
     45 H18          6.6470    -1.2780    -1.6030 h1         1 MXF       0.032200
     46 H18A         6.3470     0.4730    -1.7170 h1         1 MXF       0.032200
     47 HN5          8.4910    -0.0780    -2.5520 hn         1 MXF       0.390000
     48 HN5A         8.6350     0.8840    -1.2640 hn         1 MXF       0.390000
     49 O5           1.5530    -2.4140    -0.4670 o          1 MXF      -0.550000
     50 O6          -0.1640    -0.6760    -1.3870 oh         1 MXF      -0.620800
@<TRIPOS>BOND
     1     1     2 2   
     2     1     8 1   
     3     1    28 1   
     4     2     3 1   
     5     2    29 1   
     6     3     4 2   
     7     3    16 1   
     8     4     5 1   
     9     4    30 1   
    10     5     6 2   
    11     5     9 1   
    12     6    16 1   
    13     6    17 1   
    14     7     8 2   
    15     7    16 1   
    16     7    31 1   
    17     8    32 1   
    18     9    19 2   
    19     9    33 1   
    20    10    11 1   
    21    10    12 1   
    22    10    17 1   
    23    10    34 1   
    24    11    20 1   
    25    11    21 1   
    26    12    13 1   
    27    12    14 1   
    28    12    24 1   
    29    13    35 1   
    30    13    36 1   
    31    13    37 1   
    32    14    22 1   
    33    14    38 1   
    34    14    39 1   
    35    15    18 1   
    36    15    22 1   
    37    15    23 2   
    38    17    40 1   
    39    18    25 1   
    40    18    41 1   
    41    24    49 2   
    42    24    50 1   
    43    25    26 1   
    44    25    43 1   
    45    25    44 1   
    46    26    27 1   
    47    26    45 1   
    48    26    46 1   
    49    27    47 1   
    50    27    48 1   
    51    42    50 1   
@<TRIPOS>SUBSTRUCTURE
     1 MXF         1 TEMP              0 ****  ****    0 ROOT
