@<TRIPOS>MOLECULE
MXF
   50    51     1     0     0
SMALL
abcg2


@<TRIPOS>ATOM
      1 C1          -4.8930     2.7570    -1.6840 cc         1 MXF      -0.118000
      2 C2          -4.9900     1.4540    -2.0570 cd         1 MXF      -0.088000
      3 C3          -4.2800     0.4580    -1.3440 cd         1 MXF      -0.137000
      4 C4          -4.1900    -0.9130    -1.4470 cc         1 MXF      -0.205000
      5 C5          -3.3020    -1.3410    -0.4360 cc         1 MXF      -0.268200
      6 C6          -2.8480    -0.2290     0.2680 cd         1 MXF       0.134900
      7 C7          -3.4070     2.1740     0.1250 cd         1 MXF      -0.090000
      8 C8          -4.0930     3.1150    -0.5580 cc         1 MXF      -0.158000
      9 C10         -2.9310    -2.7080    -0.1180 c          1 MXF       0.606100
     10 C11         -0.7350     0.6730     1.1650 c3         1 MXF       0.053500
     11 C12         -0.5800     1.5040     2.4840 c          1 MXF       0.708000
     12 C13          0.5360    -0.1750     0.8750 c3         1 MXF       0.065300
     13 C14          0.9160    -1.0270     2.0800 c3         1 MXF      -0.073100
     14 C15          1.6710     0.7210     0.3940 c3         1 MXF       0.181600
     15 C16          3.9850     0.6210    -0.0180 c          1 MXF       0.647100
     16 N1          -3.4700     0.8610    -0.2760 na         1 MXF       0.126100
     17 N3          -1.9140    -0.1740     1.2890 nu         1 MXF      -0.820200
     18 N4           5.0340    -0.2160    -0.0740 ns         1 MXF      -0.512900
     19 O1          -3.3080    -3.6770    -0.7450 o          1 MXF      -0.560100
     20 O3          -1.3710     1.2210     3.4030 o          1 MXF      -0.703000
     21 O4           0.3000     2.3800     2.4950 o          1 MXF      -0.703000
     22 O7           2.8720    -0.0340     0.3200 os         1 MXF      -0.443100
     23 O8           4.0350     1.8160    -0.2360 o          1 MXF      -0.552000
     24 S1           0.0700    -1.4050    -0.4400 s4         1 MXF       0.466500
     25 C17          6.3410     0.2160    -0.5150 c3         1 MXF       0.123000
     26 C18          7.3600    -0.8870    -0.2740 c3         1 MXF       0.129800
     27 N5           8.6620    -0.4630    -0.7570 n8         1 MXF      -0.994200
     28 H1          -5.4310     3.5240    -2.2230 ha         1 MXF       0.108000
     29 H2          -5.6040     1.1490    -2.8940 ha         1 MXF       0.115000
     30 H4          -4.7100    -1.5270    -2.1640 ha         1 MXF       0.207000
     31 H7          -2.8280     2.3860     1.0100 h4         1 MXF       0.177000
     32 H8          -4.0390     4.1420    -0.2270 ha         1 MXF       0.126000
     33 H10         -2.2830    -2.8200     0.7650 h4         1 MXF       0.002200
     34 H11         -0.8460     1.3920     0.3460 h1         1 MXF       0.053700
     35 H14          0.0380    -1.5290     2.4870 hc         1 MXF       0.046033
     36 H14A         1.6580    -1.7860     1.8370 hc         1 MXF       0.046033
     37 H14B         1.3410    -0.3980     2.8640 hc         1 MXF       0.046033
     38 H15          1.4310     1.1640    -0.5760 h1         1 MXF       0.083200
     39 H15A         1.7690     1.5340     1.1130 h1         1 MXF       0.083200
     40 HN3         -2.2940    -0.0610     2.2250 hn         1 MXF       0.510000
     41 HN4          4.8580    -1.2060     0.0020 hn         1 MXF       0.326500
     42 HO6         -1.0880    -0.5990    -2.0800 ho         1 MXF       0.474000
     43 H17          6.3290     0.4790    -1.5790 h1         1 MXF       0.051700
     44 H17A         6.6440     1.1090     0.0350 h1         1 MXF       0.051700
     45 H18          7.4310    -1.0770     0.7990 h1         1 MXF       0.032200
     46 H18A         6.9980    -1.8180    -0.7350 h1         1 MXF       0.032200
     47 HN5          9.3590    -1.1460    -0.4890 hn         1 MXF       0.390000
     48 HN5A         8.6620    -0.4590    -1.7700 hn         1 MXF       0.390000
     49 O5           1.3150    -2.0800    -0.8800 o          1 MXF      -0.550000
     50 O6          -0.3130    -0.2830    -1.5920 oh         1 MXF      -0.620800
@<TRIPOS>BOND
     1     1     2 2   
     2     1     8 1   
     3     1    28 1   
     4     2     3 1   
     5     2    29 1   
     6     3     4 2   
     7     3    16 1   
     8     4     5 1   
     9     4    30 1   
    10     5     6 2   
    11     5     9 1   
    12     6    16 1   
    13     6    17 1   
    14     7     8 2   
    15     7    16 1   
    16     7    31 1   
    17     8    32 1   
    18     9    19 2   
    19     9    33 1   
    20    10    11 1   
    21    10    12 1   
    22    10    17 1   
    23    10    34 1   
    24    11    20 1   
    25    11    21 1   
    26    12    13 1   
    27    12    14 1   
    28    12    24 1   
    29    13    35 1   
    30    13    36 1   
    31    13    37 1   
    32    14    22 1   
    33    14    38 1   
    34    14    39 1   
    35    15    18 1   
    36    15    22 1   
    37    15    23 2   
    38    17    40 1   
    39    18    25 1   
    40    18    41 1   
    41    24    49 2   
    42    24    50 1   
    43    25    26 1   
    44    25    43 1   
    45    25    44 1   
    46    26    27 1   
    47    26    45 1   
    48    26    46 1   
    49    27    47 1   
    50    27    48 1   
    51    42    50 1   
@<TRIPOS>SUBSTRUCTURE
     1 MXF         1 TEMP              0 ****  ****    0 ROOT
