@<TRIPOS>MOLECULE
MXG
   74    74     1     0     0
SMALL
No Charge or Current Charge


@<TRIPOS>ATOM
      1 O34         16.6650     6.8960    12.8330 o          1 MXG      -0.673100
      2 C33         17.2840     5.9810    12.3100 c          1 MXG       0.599100
      3 C35         17.4340     4.6170    12.9690 c3         1 MXG      -0.177100
      4 N32         17.8910     6.1040    11.0840 ns         1 MXG      -0.518900
      5 C30         17.9270     7.3490    10.2730 c3         1 MXG       0.048700
      6 C31         18.8640     8.4180    10.8850 c3         1 MXG      -0.106100
      7 C28         18.2700     7.1100     8.7620 c          1 MXG       0.599100
      8 O29         17.7400     7.7690     7.8780 o          1 MXG      -0.665100
      9 N27         19.0450     6.0260     8.3950 ns         1 MXG      -0.475900
     10 C23         20.1900     5.4670     9.1570 c3         1 MXG      -0.040300
     11 C24         19.9660     3.9380     9.3630 c          1 MXG       0.721000
     12 O26         19.1490     3.6240    10.2170 o          1 MXG      -0.709000
     13 O25         20.5180     3.1370     8.6220 o          1 MXG      -0.709000
     14 C22         21.5350     5.8710     8.4940 c3         1 MXG      -0.054400
     15 C21         22.8290     5.4280     9.2340 c3         1 MXG      -0.153400
     16 C19         22.7390     5.5920    10.7550 c          1 MXG       0.601100
     17 O20         22.3450     4.6950    11.4840 o          1 MXG      -0.571100
     18 N18         23.1260     6.8270    11.2320 ns         1 MXG      -0.500900
     19 C12         23.1040     7.2460    12.6550 c3         1 MXG       0.049700
     20 C13         21.7260     6.9910    13.3420 c3         1 MXG      -0.091400
     21 C14         21.2620     8.1230    14.2910 c3         1 MXG      -0.077400
     22 C15         19.8950     7.8220    14.9530 c3         1 MXG      -0.076400
     23 C16         19.3130     8.9890    15.7800 c3         1 MXG       0.157800
     24 N17         20.1350     9.3080    16.9590 n8         1 MXG      -0.964200
     25 C10         24.3400     6.6700    13.4300 c          1 MXG       0.597100
     26 O11         25.3000     6.1520    12.8690 o          1 MXG      -0.626100
     27 N9          24.2890     6.7700    14.8030 ns         1 MXG      -0.474900
     28 C7          25.3840     6.3860    15.7330 c3         1 MXG       0.019700
     29 C8          25.1140     5.0140    16.3880 c          1 MXG       0.567900
     30 O8A         24.1480     4.2970    16.1370 o          1 MXG      -0.482100
     31 C6          25.6560     7.4800    16.8030 c6         1 MXG       0.270500
     32 S1          26.2200     9.0340    15.9790 ss         1 MXG      -0.514000
     33 N5          24.4570     7.6430    17.6310 n2         1 MXG      -0.580900
     34 C4          24.4810     8.4880    18.6340 ce         1 MXG       0.406600
     35 C4A         23.7880     8.1000    19.9710 c          1 MXG       0.641700
     36 O4B         23.6980     8.9240    20.8780 o          1 MXG      -0.680000
     37 O4A         23.3210     6.9690    20.1030 o          1 MXG      -0.680000
     38 C3          25.1470     9.8090    18.3960 ce         1 MXG      -0.192800
     39 C3A         25.6980    10.6040    19.3470 c2         1 MXG      -0.298000
     40 C2          25.1940    10.2360    16.9280 c6         1 MXG       0.116800
     41 H351        17.0620     3.8470    12.2850 hc         1 MXG       0.058700
     42 H352        18.5000     4.3720    13.0400 hc         1 MXG       0.058700
     43 H353        16.9410     4.5630    13.9460 hc         1 MXG       0.058700
     44 H32         18.3290     5.2560    10.7190 hn         1 MXG       0.397500
     45 H30         16.9100     7.7630    10.2800 h1         1 MXG       0.069700
     46 H311        18.7830     9.3570    10.3250 hc         1 MXG       0.041033
     47 H312        18.6020     8.6260    11.9280 hc         1 MXG       0.041033
     48 H313        19.9100     8.0940    10.8470 hc         1 MXG       0.041033
     49 H27         19.0410     5.8420     7.3990 hn         1 MXG       0.295500
     50 H23         20.1990     5.9070    10.1590 h1         1 MXG       0.068700
     51 H221        21.5670     5.4940     7.4640 hc         1 MXG       0.027200
     52 H222        21.5510     6.9650     8.4180 hc         1 MXG       0.027200
     53 H211        23.0250     4.3740     9.0040 hc         1 MXG       0.066700
     54 H212        23.6400     6.0560     8.8470 hc         1 MXG       0.066700
     55 H18         23.4540     7.4920    10.5420 hn         1 MXG       0.304500
     56 H12         23.2560     8.3340    12.6450 h1         1 MXG       0.051700
     57 H131        20.9580     6.8800    12.5690 hc         1 MXG       0.074700
     58 H132        21.7500     6.0330    13.8780 hc         1 MXG       0.074700
     59 H141        22.0140     8.2950    15.0690 hc         1 MXG       0.030700
     60 H142        21.1810     9.0540    13.7150 hc         1 MXG       0.030700
     61 H151        19.1700     7.5700    14.1710 hc         1 MXG       0.062200
     62 H152        19.9830     6.9340    15.5910 hc         1 MXG       0.062200
     63 H161        19.2360     9.8860    15.1510 h1         1 MXG       0.015700
     64 H162        18.3060     8.7220    16.1270 h1         1 MXG       0.015700
     65 H171        19.7380    10.1290    17.4300 hn         1 MXG       0.377500
     66 H172        21.0570     9.6270    16.6420 hn         1 MXG       0.377500
     67 HN9         23.4680     7.2080    15.2020 hn         1 MXG       0.355500
     68 HC7         26.3150     6.2670    15.1640 h1         1 MXG       0.084700
     69 HC8         25.8790     4.6900    17.1290 h4         1 MXG      -0.035800
     70 HC6         26.4870     7.1520    17.4450 h2         1 MXG       0.057700
     71 HC31        25.7130    10.3340    20.4030 ha         1 MXG       0.156000
     72 HC32        26.1740    11.5530    19.0940 ha         1 MXG       0.156000
     73 HC21        25.6260    11.2410    16.8110 h1         1 MXG       0.064700
     74 HC22        24.1800    10.2450    16.5020 h1         1 MXG       0.064700
@<TRIPOS>BOND
     1     1     2 2   
     2     2     3 1   
     3     2     4 1   
     4     3    41 1   
     5     3    42 1   
     6     3    43 1   
     7     4     5 1   
     8     4    44 1   
     9     5     6 1   
    10     5     7 1   
    11     5    45 1   
    12     6    46 1   
    13     6    47 1   
    14     6    48 1   
    15     7     8 2   
    16     7     9 1   
    17     9    10 1   
    18     9    49 1   
    19    10    11 1   
    20    10    14 1   
    21    10    50 1   
    22    11    12 1   
    23    11    13 1   
    24    14    15 1   
    25    14    51 1   
    26    14    52 1   
    27    15    16 1   
    28    15    53 1   
    29    15    54 1   
    30    16    17 2   
    31    16    18 1   
    32    18    19 1   
    33    18    55 1   
    34    19    20 1   
    35    19    25 1   
    36    19    56 1   
    37    20    21 1   
    38    20    57 1   
    39    20    58 1   
    40    21    22 1   
    41    21    59 1   
    42    21    60 1   
    43    22    23 1   
    44    22    61 1   
    45    22    62 1   
    46    23    24 1   
    47    23    63 1   
    48    23    64 1   
    49    24    65 1   
    50    24    66 1   
    51    25    26 2   
    52    25    27 1   
    53    27    28 1   
    54    27    67 1   
    55    28    29 1   
    56    28    31 1   
    57    28    68 1   
    58    29    30 2   
    59    29    69 1   
    60    31    32 1   
    61    31    33 1   
    62    31    70 1   
    63    32    40 1   
    64    33    34 2   
    65    34    35 1   
    66    34    38 1   
    67    35    36 1   
    68    35    37 1   
    69    38    39 2   
    70    38    40 1   
    71    39    71 1   
    72    39    72 1   
    73    40    73 1   
    74    40    74 1   
@<TRIPOS>SUBSTRUCTURE
     1 MXG         1 TEMP              0 ****  ****    0 ROOT
