@<TRIPOS>MOLECULE
MXG
   74    74     1     0     0
SMALL
bcc


@<TRIPOS>ATOM
      1 O34         16.9110     6.6860    13.0660 o          1 MXG      -0.673100
      2 C33         17.4930     5.7590    12.5110 c          1 MXG       0.666100
      3 C35         17.6750     4.4240    13.1940 c3         1 MXG      -0.177100
      4 N32         18.0210     5.8460    11.2810 ns         1 MXG      -0.585900
      5 C30         17.9220     7.0660    10.5020 c3         1 MXG       0.048700
      6 C31         18.8920     8.1610    10.9540 c3         1 MXG      -0.106100
      7 C28         18.0730     6.8110     9.0010 c          1 MXG       0.666100
      8 O29         17.2030     7.2050     8.2350 o          1 MXG      -0.665100
      9 N27         19.1970     6.2360     8.5300 ns         1 MXG      -0.542900
     10 C23         20.2880     5.5800     9.2360 c3         1 MXG      -0.040300
     11 C24         20.0290     4.0480     9.2030 c          1 MXG       0.931600
     12 O26         19.1490     3.6490    10.0080 o          1 MXG      -0.814300
     13 O25         20.6470     3.3610     8.3820 o          1 MXG      -0.814300
     14 C22         21.6160     6.0260     8.6420 c3         1 MXG      -0.054400
     15 C21         22.8320     5.4390     9.3630 c3         1 MXG      -0.153400
     16 C19         22.7880     5.6590    10.8610 c          1 MXG       0.668100
     17 O20         22.6190     4.7460    11.6560 o          1 MXG      -0.571100
     18 N18         22.8950     6.9460    11.2460 ns         1 MXG      -0.567900
     19 C12         22.9370     7.3560    12.6250 c3         1 MXG       0.049700
     20 C13         21.6630     7.0060    13.4280 c3         1 MXG      -0.091400
     21 C14         21.0810     8.2020    14.1780 c3         1 MXG      -0.077400
     22 C15         19.9360     7.8030    15.0990 c3         1 MXG      -0.076400
     23 C16         19.1420     8.9850    15.6360 c3         1 MXG       0.157800
     24 N17         19.9610     9.8630    16.4600 n8         1 MXG      -0.853800
     25 C10         24.2290     6.8620    13.2940 c          1 MXG       0.664100
     26 O11         25.1370     6.3390    12.6740 o          1 MXG      -0.626100
     27 N9          24.2970     7.1170    14.6150 ns         1 MXG      -0.541900
     28 C7          25.3420     6.6340    15.4600 c3         1 MXG       0.019700
     29 C8          25.0370     5.2500    16.0060 c          1 MXG       0.567900
     30 O8A         24.0770     4.5990    15.6970 o          1 MXG      -0.482100
     31 C6          25.5540     7.5870    16.6380 c6         1 MXG       0.222600
     32 S1          26.2570     9.1490    15.9860 ss         1 MXG      -0.418200
     33 N5          24.2920     7.7930    17.2930 n2         1 MXG      -0.580900
     34 C4          24.2540     8.6410    18.2410 ce         1 MXG       0.406600
     35 C4A         22.9100     8.9480    18.9210 c          1 MXG       0.852300
     36 O4B         22.8260    10.0980    19.3840 o          1 MXG      -0.785300
     37 O4A         22.0610     8.0460    18.9090 o          1 MXG      -0.785300
     38 C3          25.4690     9.3880    18.6250 ce         1 MXG      -0.192800
     39 C3A         25.9670     9.3260    19.8560 c2         1 MXG      -0.198000
     40 C2          26.1680    10.1340    17.5220 c6         1 MXG       0.068900
     41 H351        18.1910     3.6880    12.5810 hc         1 MXG       0.058700
     42 H352        18.2460     4.5660    14.1130 hc         1 MXG       0.058700
     43 H353        16.7030     4.0220    13.4780 hc         1 MXG       0.058700
     44 H32         18.4240     4.9970    10.8510 hn         1 MXG       0.397500
     45 H30         16.9100     7.4600    10.6120 h1         1 MXG       0.069700
     46 H311        18.7610     9.0560    10.3440 hc         1 MXG       0.041033
     47 H312        18.6930     8.4340    11.9890 hc         1 MXG       0.041033
     48 H313        19.9340     7.8520    10.8830 hc         1 MXG       0.041033
     49 H27         19.2030     6.1130     7.5260 hn         1 MXG       0.295500
     50 H23         20.2550     5.9040    10.2750 h1         1 MXG       0.068700
     51 H221        21.6700     5.7450     7.5880 hc         1 MXG       0.027200
     52 H222        21.6570     7.1170     8.6760 hc         1 MXG       0.027200
     53 H211        22.8960     4.3680     9.1810 hc         1 MXG       0.066700
     54 H212        23.7370     5.8950     8.9530 hc         1 MXG       0.066700
     55 H18         23.1400     7.6330    10.5530 hn         1 MXG       0.304500
     56 H12         23.0200     8.4470    12.5960 h1         1 MXG       0.051700
     57 H131        20.9010     6.6330    12.7420 hc         1 MXG       0.074700
     58 H132        21.8550     6.1870    14.1260 hc         1 MXG       0.074700
     59 H141        21.8560     8.7110    14.7600 hc         1 MXG       0.030700
     60 H142        20.7310     8.9380    13.4450 hc         1 MXG       0.030700
     61 H151        19.2450     7.1510    14.5570 hc         1 MXG       0.062200
     62 H152        20.3290     7.2170    15.9360 hc         1 MXG       0.062200
     63 H161        18.6680     9.5000    14.7870 h1         1 MXG       0.015700
     64 H162        18.3260     8.6070    16.2560 h1         1 MXG       0.015700
     65 H171        19.3770    10.5750    16.8770 hn         1 MXG       0.322300
     66 H172        20.6190    10.3650    15.8760 hn         1 MXG       0.322300
     67 HN9         23.4920     7.4860    15.1000 hn         1 MXG       0.355500
     68 HC7         26.2780     6.5470    14.8980 h1         1 MXG       0.084700
     69 HC8         25.7940     4.8700    16.7160 h4         1 MXG      -0.035800
     70 HC6         26.2850     7.1460    17.3260 h2         1 MXG       0.057700
     71 HC31        25.4520     8.8020    20.6500 ha         1 MXG       0.106000
     72 HC32        26.9090     9.7970    20.1100 ha         1 MXG       0.106000
     73 HC21        27.1720    10.4210    17.8340 h1         1 MXG       0.064700
     74 HC22        25.6130    11.0430    17.2830 h1         1 MXG       0.064700
@<TRIPOS>BOND
     1     1     2 2   
     2     2     3 1   
     3     2     4 1   
     4     3    41 1   
     5     3    42 1   
     6     3    43 1   
     7     4     5 1   
     8     4    44 1   
     9     5     6 1   
    10     5     7 1   
    11     5    45 1   
    12     6    46 1   
    13     6    47 1   
    14     6    48 1   
    15     7     8 2   
    16     7     9 1   
    17     9    10 1   
    18     9    49 1   
    19    10    11 1   
    20    10    14 1   
    21    10    50 1   
    22    11    12 1   
    23    11    13 1   
    24    14    15 1   
    25    14    51 1   
    26    14    52 1   
    27    15    16 1   
    28    15    53 1   
    29    15    54 1   
    30    16    17 2   
    31    16    18 1   
    32    18    19 1   
    33    18    55 1   
    34    19    20 1   
    35    19    25 1   
    36    19    56 1   
    37    20    21 1   
    38    20    57 1   
    39    20    58 1   
    40    21    22 1   
    41    21    59 1   
    42    21    60 1   
    43    22    23 1   
    44    22    61 1   
    45    22    62 1   
    46    23    24 1   
    47    23    63 1   
    48    23    64 1   
    49    24    65 1   
    50    24    66 1   
    51    25    26 2   
    52    25    27 1   
    53    27    28 1   
    54    27    67 1   
    55    28    29 1   
    56    28    31 1   
    57    28    68 1   
    58    29    30 2   
    59    29    69 1   
    60    31    32 1   
    61    31    33 1   
    62    31    70 1   
    63    32    40 1   
    64    33    34 2   
    65    34    35 1   
    66    34    38 1   
    67    35    36 1   
    68    35    37 1   
    69    38    39 2   
    70    38    40 1   
    71    39    71 1   
    72    39    72 1   
    73    40    73 1   
    74    40    74 1   
@<TRIPOS>SUBSTRUCTURE
     1 MXG         1 TEMP              0 ****  ****    0 ROOT
