@<TRIPOS>MOLECULE
MXH
   87    90     1     0     0
SMALL
bcc


@<TRIPOS>ATOM
      1 C11          8.3390   -10.3670    55.8430 c3         1 MXH       0.148500
      2 C12          8.0530   -10.4990    54.3340 c3         1 MXH      -0.019100
      3 C14          8.5150    -8.2680    53.2850 ca         1 MXH      -0.082000
      4 C22          7.3620   -11.4020    60.5770 ca         1 MXH      -0.150000
      5 C24          9.4940   -10.2530    60.4210 cp         1 MXH      -0.048000
      6 N           10.1720   -12.0050    56.1060 n          1 MXH      -0.446800
      7 C            9.8020   -10.7120    56.1540 c          1 MXH       0.642100
      8 O           10.5910    -9.7990    56.3530 o          1 MXH      -0.607100
      9 C1          11.5320   -12.3630    56.4890 c6         1 MXH       0.086500
     10 C10          9.2580   -13.1240    56.2890 c6         1 MXH       0.086500
     11 C13          8.9070    -9.5850    53.5040 ca         1 MXH      -0.093300
     12 C15          9.3130    -7.3890    52.5550 ca         1 MXH      -0.196900
     13 C16          8.8820    -5.9820    52.3240 ce         1 MXH       0.661800
     14 C17         10.5210    -7.8440    52.0320 ca         1 MXH      -0.105000
     15 C18         10.9180    -9.1560    52.2410 ca         1 MXH      -0.129000
     16 C19         10.1170   -10.0210    52.9710 ca         1 MXH      -0.105000
     17 C2          11.5730   -12.7110    57.9700 c6         1 MXH      -0.130400
     18 C20          7.6930    -9.7330    58.9090 ca         1 MXH      -0.304500
     19 C21          6.8680   -10.6770    59.5010 ca         1 MXH      -0.028000
     20 C23          8.6530   -11.1910    61.0280 ca         1 MXH      -0.086000
     21 C25         10.8860   -10.0720    60.8790 cp         1 MXH      -0.015000
     22 C26         11.8870    -9.6720    59.9950 ca         1 MXH      -0.137000
     23 C27         13.1980    -9.5480    60.4260 ca         1 MXH      -0.083000
     24 C28         13.5660    -9.8210    61.7380 ca         1 MXH      -0.117300
     25 C29         14.9830    -9.6840    62.2110 c3         1 MXH       0.191700
     26 C3          10.5750   -13.8180    58.3210 c6         1 MXH       0.120700
     27 C30         12.5480   -10.2030    62.5980 ca         1 MXH       0.160900
     28 C31         11.2350   -10.3350    62.2050 ca         1 MXH      -0.170000
     29 C32          8.9870    -9.5080    59.3590 ca         1 MXH      -0.026000
     30 C5          12.3760   -14.7320    62.8340 c3         1 MXH       0.154400
     31 C6          13.7640   -14.1420    62.5790 c3         1 MXH      -0.105100
     32 C7          12.4450   -16.2590    62.8950 c3         1 MXH      -0.105100
     33 C8          11.8550   -14.2030    64.1700 c3         1 MXH      -0.105100
     34 C9           9.1870   -13.4970    57.7650 c6         1 MXH      -0.130400
     35 F           12.8540   -10.4790    63.8760 f          1 MXH      -0.138900
     36 N1          10.4640   -14.0160    59.7530 ns         1 MXH      -0.572900
     37 N2          11.4190   -14.2840    61.8210 ns         1 MXH      -0.592900
     38 N3           8.1450    -5.4360    53.3340 nv         1 MXH      -0.919800
     39 N4           9.1230    -5.3100    51.2630 n2         1 MXH      -0.846100
     40 N5           8.0790    -9.0120    56.2910 n7         1 MXH      -0.820100
     41 O1          12.4540   -15.0880    59.9560 o          1 MXH      -0.642100
     42 O2          15.0630    -8.5720    63.0760 oh         1 MXH      -0.586800
     43 O3           7.2400    -7.3430    57.9020 o          1 MXH      -0.600300
     44 O4           5.7700    -9.2660    57.2120 o          1 MXH      -0.600300
     45 S            7.0800    -8.7450    57.5620 sy         1 MXH       1.298200
     46 H1           7.6580   -11.0450    56.3620 h1         1 MXH       0.072700
     47 H2           6.9970   -10.2690    54.1890 hc         1 MXH       0.065200
     48 H3           8.1990   -11.5370    54.0290 hc         1 MXH       0.065200
     49 H4           7.5620    -7.9340    53.6760 ha         1 MXH       0.150000
     50 H5           6.7370   -12.1410    61.0590 ha         1 MXH       0.142000
     51 H6          11.8310   -13.2220    55.8820 h1         1 MXH       0.065950
     52 H7          12.2130   -11.5500    56.2550 h1         1 MXH       0.065950
     53 H8           8.2680   -12.9050    55.8980 h1         1 MXH       0.065950
     54 H9           9.6370   -13.9630    55.7010 h1         1 MXH       0.065950
     55 H10         11.1630    -7.1730    51.4760 ha         1 MXH       0.136000
     56 H11         11.8590    -9.5030    51.8360 ha         1 MXH       0.134000
     57 H12         10.4360   -11.0450    53.1270 ha         1 MXH       0.131000
     58 H13         12.5840   -13.0120    58.2510 hc         1 MXH       0.060950
     59 H14         11.3310   -11.8210    58.5550 hc         1 MXH       0.060950
     60 H15          5.8640   -10.8500    59.1420 ha         1 MXH       0.164000
     61 H16          9.0110   -11.7770    61.8660 ha         1 MXH       0.130000
     62 H17         11.6590    -9.4830    58.9540 ha         1 MXH       0.152000
     63 H18         13.9610    -9.2460    59.7190 ha         1 MXH       0.141000
     64 H19         15.2970   -10.6070    62.7120 h1         1 MXH       0.030700
     65 H20         15.6330    -9.5670    61.3350 h1         1 MXH       0.030700
     66 H21         10.9110   -14.7540    57.8670 h1         1 MXH       0.081700
     67 H22         10.4920   -10.6200    62.9390 ha         1 MXH       0.147000
     68 H23          9.6000    -8.7440    58.9000 ha         1 MXH       0.154000
     69 H24         14.4280   -14.3790    63.4110 hc         1 MXH       0.044700
     70 H25         14.2130   -14.5320    61.6680 hc         1 MXH       0.044700
     71 H26         13.7090   -13.0550    62.4920 hc         1 MXH       0.044700
     72 H27         13.1280   -16.5750    63.6850 hc         1 MXH       0.044700
     73 H28         11.4620   -16.6820    63.1130 hc         1 MXH       0.044700
     74 H29         12.7980   -16.6820    61.9560 hc         1 MXH       0.044700
     75 H30         12.5070   -14.5260    64.9810 hc         1 MXH       0.044700
     76 H31         11.8240   -13.1110    64.1820 hc         1 MXH       0.044700
     77 H32         10.8510   -14.5770    64.3820 hc         1 MXH       0.044700
     78 H33          8.7480   -12.6540    58.3140 hc         1 MXH       0.060950
     79 H34          8.5190   -14.3500    57.9000 hc         1 MXH       0.060950
     80 H35          9.8380   -13.3710    60.2120 hn         1 MXH       0.288500
     81 H36         10.5650   -13.8820    62.1720 hn         1 MXH       0.300500
     82 H37          8.3180    -5.7520    54.2730 hn         1 MXH       0.415300
     83 H38          7.9540    -4.4490    53.2600 hn         1 MXH       0.415300
     84 H39          9.5880    -5.8850    50.5710 hn         1 MXH       0.386400
     85 H40          8.9050    -8.4210    56.2960 hn         1 MXH       0.460800
     86 H41         15.9290    -8.5870    63.4960 ho         1 MXH       0.407000
     87 C4          11.5180   -14.4990    60.4860 c          1 MXH       0.782100
@<TRIPOS>BOND
     1     1     2 1   
     2     1     7 1   
     3     1    40 1   
     4     1    46 1   
     5     2    11 1   
     6     2    47 1   
     7     2    48 1   
     8     3    11 ar  
     9     3    12 ar  
    10     3    49 1   
    11     4    19 ar  
    12     4    20 ar  
    13     4    50 1   
    14     5    20 ar  
    15     5    21 1   
    16     5    29 ar  
    17     6     7 1   
    18     6     9 1   
    19     6    10 1   
    20     7     8 2   
    21     9    17 1   
    22     9    51 1   
    23     9    52 1   
    24    10    34 1   
    25    10    53 1   
    26    10    54 1   
    27    11    16 ar  
    28    12    13 1   
    29    12    14 ar  
    30    13    38 1   
    31    13    39 2   
    32    14    15 ar  
    33    14    55 1   
    34    15    16 ar  
    35    15    56 1   
    36    16    57 1   
    37    17    26 1   
    38    17    58 1   
    39    17    59 1   
    40    18    19 ar  
    41    18    29 ar  
    42    18    45 1   
    43    19    60 1   
    44    20    61 1   
    45    21    22 ar  
    46    21    28 ar  
    47    22    23 ar  
    48    22    62 1   
    49    23    24 ar  
    50    23    63 1   
    51    24    25 1   
    52    24    27 ar  
    53    25    42 1   
    54    25    64 1   
    55    25    65 1   
    56    26    34 1   
    57    26    36 1   
    58    26    66 1   
    59    27    28 ar  
    60    27    35 1   
    61    28    67 1   
    62    29    68 1   
    63    30    31 1   
    64    30    32 1   
    65    30    33 1   
    66    30    37 1   
    67    31    69 1   
    68    31    70 1   
    69    31    71 1   
    70    32    72 1   
    71    32    73 1   
    72    32    74 1   
    73    33    75 1   
    74    33    76 1   
    75    33    77 1   
    76    34    78 1   
    77    34    79 1   
    78    36    80 1   
    79    36    87 1   
    80    37    81 1   
    81    37    87 1   
    82    38    82 1   
    83    38    83 1   
    84    39    84 1   
    85    40    45 1   
    86    40    85 1   
    87    41    87 2   
    88    42    86 1   
    89    43    45 2   
    90    44    45 2   
@<TRIPOS>SUBSTRUCTURE
     1 MXH         1 TEMP              0 ****  ****    0 ROOT
