@<TRIPOS>MOLECULE
MXH
   87    90     1     0     0
SMALL
No Charge or Current Charge


@<TRIPOS>ATOM
      1 C11          8.2740    -9.7820    55.9690 c3         1 MXH       0.148500
      2 C12          7.8660   -10.3100    54.5660 c3         1 MXH      -0.019100
      3 C14          8.0660    -8.5120    52.7710 ca         1 MXH      -0.064000
      4 C22          6.8240   -10.5660    60.0160 ca         1 MXH      -0.132000
      5 C24          9.1620    -9.9840    60.5280 cp         1 MXH      -0.048000
      6 N           10.2020   -11.4660    56.3600 n          1 MXH      -0.379800
      7 C            9.7870   -10.1100    56.2680 c          1 MXH       0.575100
      8 O           10.6180    -9.2090    56.3360 o          1 MXH      -0.607100
      9 C1          11.6360   -11.8380    56.4650 c6         1 MXH       0.086500
     10 C10          9.3040   -12.5870    56.7470 c6         1 MXH       0.086500
     11 C13          8.6120    -9.6420    53.4120 ca         1 MXH      -0.093300
     12 C15          8.7450    -7.8800    51.7010 ca         1 MXH      -0.196900
     13 C16          8.1370    -6.7090    50.9950 ce         1 MXH       0.661800
     14 C17          9.9730    -8.4300    51.2640 ca         1 MXH      -0.087000
     15 C18         10.5170    -9.5580    51.8990 ca         1 MXH      -0.111000
     16 C19          9.8410   -10.1630    52.9680 ca         1 MXH      -0.087000
     17 C2          11.9830   -12.2450    57.9130 c6         1 MXH      -0.130400
     18 C20          7.9200    -8.8060    58.7460 ca         1 MXH      -0.304500
     19 C21          6.7770    -9.5820    59.0190 ca         1 MXH      -0.010000
     20 C23          7.9980   -10.7640    60.7610 ca         1 MXH      -0.068000
     21 C25         10.4120   -10.1890    61.3420 cp         1 MXH      -0.015000
     22 C26         11.6950    -9.8600    60.8320 ca         1 MXH      -0.119000
     23 C27         12.8610   -10.0560    61.5910 ca         1 MXH      -0.065000
     24 C28         12.7840   -10.5760    62.8950 ca         1 MXH      -0.117300
     25 C29         14.0550   -10.7670    63.7120 c3         1 MXH       0.214900
     26 C3          11.0670   -13.3850    58.4230 c6         1 MXH       0.120700
     27 C30         11.5200   -10.8980    63.4230 ca         1 MXH       0.196000
     28 C31         10.3560   -10.7100    62.6600 ca         1 MXH      -0.152000
     29 C32          9.0970    -9.0050    59.5000 ca         1 MXH      -0.008000
     30 C5          13.2170   -15.0930    62.6390 c3         1 MXH       0.154400
     31 C6          14.6700   -14.5940    62.4390 c3         1 MXH      -0.105100
     32 C7          13.1310   -16.6220    62.4050 c3         1 MXH      -0.105100
     33 C8          12.7690   -14.7810    64.0850 c3         1 MXH      -0.105100
     34 C9           9.5810   -13.0080    58.2070 c6         1 MXH      -0.130400
     35 F           11.4060   -11.3860    64.6790 f          1 MXH      -0.174000
     36 N1          11.3070   -13.6230    59.8490 ns         1 MXH      -0.505900
     37 N2          12.3010   -14.3810    61.7410 ns         1 MXH      -0.525900
     38 N3           7.3510    -5.8810    51.7030 nv         1 MXH      -1.030200
     39 N4           8.4290    -6.3830    49.8050 n2         1 MXH      -0.846100
     40 N5           7.9130    -8.3280    56.0460 n7         1 MXH      -0.875300
     41 O1          13.1260   -14.9800    59.6780 o          1 MXH      -0.642100
     42 O2          14.4120    -9.5420    64.3610 oh         1 MXH      -0.649000
     43 O3           9.0650    -6.7080    57.5440 o          1 MXH      -0.529500
     44 O4           6.5090    -6.8930    57.5220 o          1 MXH      -0.529500
     45 S            7.8400    -7.5050    57.5000 sy         1 MXH       1.156600
     46 H1           7.6720   -10.3440    56.6900 h1         1 MXH       0.072700
     47 H2           6.7850   -10.1650    54.4440 hc         1 MXH       0.065200
     48 H3           8.0150   -11.3950    54.5210 hc         1 MXH       0.065200
     49 H4           7.1020    -8.1340    53.1060 ha         1 MXH       0.132000
     50 H5           5.9460   -11.1750    60.2170 ha         1 MXH       0.124000
     51 H6          11.8390   -12.6800    55.7880 h1         1 MXH       0.065950
     52 H7          12.2830   -11.0080    56.1450 h1         1 MXH       0.065950
     53 H8           8.2440   -12.3290    56.6400 h1         1 MXH       0.065950
     54 H9           9.4910   -13.4410    56.0790 h1         1 MXH       0.065950
     55 H10         10.5220    -7.9800    50.4390 ha         1 MXH       0.118000
     56 H11         11.4660    -9.9670    51.5580 ha         1 MXH       0.116000
     57 H12         10.2720   -11.0410    53.4460 ha         1 MXH       0.113000
     58 H13         13.0360   -12.5520    57.9700 hc         1 MXH       0.060950
     59 H14         11.8770   -11.3680    58.5610 hc         1 MXH       0.060950
     60 H15          5.8560    -9.4270    58.4570 ha         1 MXH       0.146000
     61 H16          8.0010   -11.5440    61.5170 ha         1 MXH       0.112000
     62 H17         11.8000    -9.4550    59.8300 ha         1 MXH       0.134000
     63 H18         13.8280    -9.7940    61.1660 ha         1 MXH       0.123000
     64 H19         13.9110   -11.5640    64.4520 h1         1 MXH       0.030700
     65 H20         14.8650   -11.0890    63.0430 h1         1 MXH       0.030700
     66 H21         11.2880   -14.3070    57.8630 h1         1 MXH       0.081700
     67 H22          9.4020   -10.9520    63.1170 ha         1 MXH       0.129000
     68 H23          9.9610    -8.3740    59.3050 ha         1 MXH       0.136000
     69 H24         15.3410   -15.0450    63.1810 hc         1 MXH       0.044700
     70 H25         15.0540   -14.8550    61.4460 hc         1 MXH       0.044700
     71 H26         14.7270   -13.5050    62.5480 hc         1 MXH       0.044700
     72 H27         13.7390   -17.1620    63.1400 hc         1 MXH       0.044700
     73 H28         12.0960   -16.9730    62.4990 hc         1 MXH       0.044700
     74 H29         13.4940   -16.9010    61.4100 hc         1 MXH       0.044700
     75 H30         13.4110   -15.2920    64.8130 hc         1 MXH       0.044700
     76 H31         12.8210   -13.7050    64.2880 hc         1 MXH       0.044700
     77 H32         11.7370   -15.1090    64.2560 hc         1 MXH       0.044700
     78 H33          9.3100   -12.1790    58.8690 hc         1 MXH       0.060950
     79 H34          8.9350   -13.8530    58.4790 hc         1 MXH       0.060950
     80 H35         10.6990   -13.1620    60.5110 hn         1 MXH       0.288500
     81 H36         11.5690   -13.8350    62.1720 hn         1 MXH       0.300500
     82 H37          7.4990    -5.8960    52.7040 hn         1 MXH       0.470500
     83 H38          7.2330    -4.9660    51.2860 hn         1 MXH       0.470500
     84 H39          8.9940    -7.1420    49.4040 hn         1 MXH       0.386400
     85 H40          8.6650    -7.7970    55.6050 hn         1 MXH       0.516000
     86 H41         15.2350    -9.7200    64.8680 ho         1 MXH       0.446000
     87 C4          12.3190   -14.3800    60.3680 c          1 MXH       0.648100
@<TRIPOS>BOND
     1     1     2 1   
     2     1     7 1   
     3     1    40 1   
     4     1    46 1   
     5     2    11 1   
     6     2    47 1   
     7     2    48 1   
     8     3    11 ar  
     9     3    12 ar  
    10     3    49 1   
    11     4    19 ar  
    12     4    20 ar  
    13     4    50 1   
    14     5    20 ar  
    15     5    21 1   
    16     5    29 ar  
    17     6     7 1   
    18     6     9 1   
    19     6    10 1   
    20     7     8 2   
    21     9    17 1   
    22     9    51 1   
    23     9    52 1   
    24    10    34 1   
    25    10    53 1   
    26    10    54 1   
    27    11    16 ar  
    28    12    13 1   
    29    12    14 ar  
    30    13    38 1   
    31    13    39 2   
    32    14    15 ar  
    33    14    55 1   
    34    15    16 ar  
    35    15    56 1   
    36    16    57 1   
    37    17    26 1   
    38    17    58 1   
    39    17    59 1   
    40    18    19 ar  
    41    18    29 ar  
    42    18    45 1   
    43    19    60 1   
    44    20    61 1   
    45    21    22 ar  
    46    21    28 ar  
    47    22    23 ar  
    48    22    62 1   
    49    23    24 ar  
    50    23    63 1   
    51    24    25 1   
    52    24    27 ar  
    53    25    42 1   
    54    25    64 1   
    55    25    65 1   
    56    26    34 1   
    57    26    36 1   
    58    26    66 1   
    59    27    28 ar  
    60    27    35 1   
    61    28    67 1   
    62    29    68 1   
    63    30    31 1   
    64    30    32 1   
    65    30    33 1   
    66    30    37 1   
    67    31    69 1   
    68    31    70 1   
    69    31    71 1   
    70    32    72 1   
    71    32    73 1   
    72    32    74 1   
    73    33    75 1   
    74    33    76 1   
    75    33    77 1   
    76    34    78 1   
    77    34    79 1   
    78    36    80 1   
    79    36    87 1   
    80    37    81 1   
    81    37    87 1   
    82    38    82 1   
    83    38    83 1   
    84    39    84 1   
    85    40    45 1   
    86    40    85 1   
    87    41    87 2   
    88    42    86 1   
    89    43    45 2   
    90    44    45 2   
@<TRIPOS>SUBSTRUCTURE
     1 MXH         1 TEMP              0 ****  ****    0 ROOT
