@<TRIPOS>MOLECULE
MXI
   52    55     1     0     0
SMALL
No Charge or Current Charge


@<TRIPOS>ATOM
      1 N26         -3.8350     4.6910    -1.1060 nv         1 MXI      -1.056900
      2 C8          -3.0650     3.8560    -0.4050 ca         1 MXI       0.597900
      3 N9          -2.3380     4.5110     0.4880 nb         1 MXI      -0.741000
      4 C10         -1.5250     3.7670     1.2720 ca         1 MXI       0.382900
      5 C11         -1.4320     2.3690     1.1680 ca         1 MXI      -0.200000
      6 C7          -3.0560     2.4740    -0.5940 ca         1 MXI      -0.240000
      7 C6          -2.2010     1.6980     0.2010 ca         1 MXI       0.071000
      8 C5          -2.1730     0.2440     0.0710 cc         1 MXI      -0.156000
      9 N1          -3.2630    -0.5910     0.0140 na         1 MXI      -0.290500
     10 C2          -2.7920    -1.8820     0.0140 cc         1 MXI       0.425800
     11 C22         -3.6950    -3.1140    -0.0210 c3         1 MXI      -0.072300
     12 C24         -4.5460    -3.0960    -1.3190 c3         1 MXI      -0.082767
     13 C23         -2.8670    -4.4310     0.0080 c3         1 MXI      -0.082767
     14 C25         -4.6400    -3.1020     1.2110 c3         1 MXI      -0.082767
     15 C4          -1.0550    -0.5650     0.0690 cd         1 MXI       0.332500
     16 N3          -1.4650    -1.8870     0.0340 nd         1 MXI      -0.676000
     17 C12          0.3860    -0.2160    -0.0360 ca         1 MXI      -0.123500
     18 C21          1.3650    -1.1870     0.2840 ca         1 MXI      -0.055000
     19 C20          2.7380    -0.9020     0.1630 ca         1 MXI      -0.075000
     20 C15          3.1560     0.3570    -0.3100 ca         1 MXI       0.004000
     21 C14          2.1950     1.3150    -0.6700 ca         1 MXI      -0.116000
     22 C13          0.8250     1.0280    -0.5460 ca         1 MXI      -0.084000
     23 C19          3.6980    -1.8710     0.5110 ca         1 MXI      -0.057000
     24 C18          5.0690    -1.5840     0.3900 ca         1 MXI      -0.183000
     25 C17          5.4880    -0.3210    -0.0830 ca         1 MXI       0.141100
     26 C16          4.5280     0.6420    -0.4320 ca         1 MXI      -0.152000
     27 O27          6.8200     0.0160    -0.2230 os         1 MXI      -0.344100
     28 C28          7.8810    -0.8990     0.1060 c3         1 MXI       0.150900
     29 H261        -3.9230     5.6200    -0.7120 hn         1 MXI       0.471500
     30 H262        -4.6590     4.3070    -1.5550 hn         1 MXI       0.471500
     31 H7          -3.6880     2.0150    -1.3470 ha         1 MXI       0.116000
     32 H10         -0.9350     4.3070     2.0120 h4         1 MXI       0.019100
     33 H11         -0.7730     1.8220     1.8350 ha         1 MXI       0.139000
     34 H1          -4.2380    -0.3230     0.0110 hn         1 MXI       0.352000
     35 H241        -3.9010    -3.0890    -2.2070 hc         1 MXI       0.040478
     36 H242        -5.1930    -3.9810    -1.3780 hc         1 MXI       0.040478
     37 H243        -5.1890    -2.2080    -1.3620 hc         1 MXI       0.040478
     38 H231        -2.2570    -4.4930     0.9170 hc         1 MXI       0.040478
     39 H232        -3.5240    -5.3100    -0.0160 hc         1 MXI       0.040478
     40 H233        -2.1950    -4.4930    -0.8570 hc         1 MXI       0.040478
     41 H251        -5.2870    -2.2160     1.2080 hc         1 MXI       0.040478
     42 H252        -5.2870    -3.9880     1.2190 hc         1 MXI       0.040478
     43 H253        -4.0630    -3.0950     2.1430 hc         1 MXI       0.040478
     44 H21          1.0590    -2.1650     0.6490 ha         1 MXI       0.127000
     45 H13          0.1160     1.7750    -0.8870 ha         1 MXI       0.118000
     46 H19          3.3840    -2.8470     0.8760 ha         1 MXI       0.113000
     47 H14          2.5070     2.2810    -1.0600 ha         1 MXI       0.115000
     48 H16          4.8540     1.6110    -0.7990 ha         1 MXI       0.127000
     49 H18          5.7870    -2.3510     0.6670 ha         1 MXI       0.115000
     50 H281         8.8560    -0.4310    -0.0790 h1         1 MXI       0.039700
     51 H282         7.8360    -1.1840     1.1650 h1         1 MXI       0.039700
     52 H283         7.8180    -1.8060    -0.5080 h1         1 MXI       0.039700
@<TRIPOS>BOND
     1     1     2 1   
     2     1    29 1   
     3     1    30 1   
     4     2     3 ar  
     5     2     6 ar  
     6     3     4 ar  
     7     4     5 ar  
     8     4    32 1   
     9     5     7 ar  
    10     5    33 1   
    11     6     7 ar  
    12     6    31 1   
    13     7     8 1   
    14     8     9 1   
    15     8    15 2   
    16     9    10 1   
    17     9    34 1   
    18    10    11 1   
    19    10    16 2   
    20    11    12 1   
    21    11    13 1   
    22    11    14 1   
    23    12    35 1   
    24    12    36 1   
    25    12    37 1   
    26    13    38 1   
    27    13    39 1   
    28    13    40 1   
    29    14    41 1   
    30    14    42 1   
    31    14    43 1   
    32    15    16 1   
    33    15    17 1   
    34    17    18 ar  
    35    17    22 ar  
    36    18    19 ar  
    37    18    44 1   
    38    19    20 ar  
    39    19    23 ar  
    40    20    21 ar  
    41    20    26 ar  
    42    21    22 ar  
    43    21    47 1   
    44    22    45 1   
    45    23    24 ar  
    46    23    46 1   
    47    24    25 ar  
    48    24    49 1   
    49    25    26 ar  
    50    25    27 1   
    51    26    48 1   
    52    27    28 1   
    53    28    50 1   
    54    28    51 1   
    55    28    52 1   
@<TRIPOS>SUBSTRUCTURE
     1 MXI         1 TEMP              0 ****  ****    0 ROOT
