@<TRIPOS>MOLECULE
MXI
   52    55     1     0     0
SMALL
bcc


@<TRIPOS>ATOM
      1 N26         -4.3370     4.4950    -0.7980 nv         1 MXI      -0.946500
      2 C8          -3.3380     3.7880    -0.2000 ca         1 MXI       0.663200
      3 N9          -2.4590     4.4740     0.5290 nb         1 MXI      -0.741000
      4 C10         -1.4510     3.8040     1.0790 ca         1 MXI       0.448200
      5 C11         -1.2520     2.4460     0.9510 ca         1 MXI      -0.283300
      6 C7          -3.2250     2.4010    -0.3980 ca         1 MXI      -0.323300
      7 C6          -2.1700     1.7180     0.1820 ca         1 MXI       0.071000
      8 C5          -2.0420     0.2740     0.0240 cc         1 MXI      -0.170600
      9 N1          -3.1390    -0.5500     0.0180 na         1 MXI      -0.290900
     10 C2          -2.7170    -1.8290    -0.0770 cc         1 MXI       0.425800
     11 C22         -3.6570    -3.0030    -0.0810 c3         1 MXI      -0.072300
     12 C24         -4.6360    -2.8710    -1.2540 c3         1 MXI      -0.082767
     13 C23         -2.8560    -4.2950    -0.2330 c3         1 MXI      -0.082767
     14 C25         -4.4410    -3.0350     1.2380 c3         1 MXI      -0.082767
     15 C4          -0.9670    -0.5800    -0.1040 cd         1 MXI       0.397800
     16 N3          -1.4120    -1.8720    -0.1590 nd         1 MXI      -0.676000
     17 C12          0.4630    -0.2860    -0.2120 ca         1 MXI      -0.123500
     18 C21          1.3850    -1.1710     0.2920 ca         1 MXI      -0.073000
     19 C20          2.7720    -0.9290     0.1890 ca         1 MXI      -0.075000
     20 C15          3.2340     0.2490    -0.4530 ca         1 MXI       0.004000
     21 C14          2.2690     1.1410    -0.9850 ca         1 MXI      -0.134000
     22 C13          0.9340     0.8800    -0.8720 ca         1 MXI      -0.102000
     23 C19          3.7310    -1.8240     0.7100 ca         1 MXI      -0.075000
     24 C18          5.0730    -1.5750     0.6080 ca         1 MXI      -0.201000
     25 C17          5.5280    -0.3960    -0.0310 ca         1 MXI       0.141100
     26 C16          4.6160     0.4940    -0.5520 ca         1 MXI      -0.170000
     27 O27          6.8310    -0.0830    -0.1650 os         1 MXI      -0.320900
     28 C28          7.8070    -0.9650     0.3550 c3         1 MXI       0.127700
     29 H261        -4.5210     5.4130    -0.4280 hn         1 MXI       0.416300
     30 H262        -5.1570     3.9930    -1.0920 hn         1 MXI       0.416300
     31 H7          -3.9530     1.8910    -1.0180 ha         1 MXI       0.134000
     32 H10         -0.7600     4.3930     1.6730 h4         1 MXI       0.019100
     33 H11         -0.4230     1.9650     1.4500 ha         1 MXI       0.157000
     34 H1          -4.0920    -0.2450     0.1490 hn         1 MXI       0.301700
     35 H241        -4.1080    -2.8350    -2.2080 hc         1 MXI       0.040478
     36 H242        -5.3100    -3.7290    -1.2740 hc         1 MXI       0.040478
     37 H243        -5.2530    -1.9740    -1.1760 hc         1 MXI       0.040478
     38 H231        -2.1390    -4.4250     0.5780 hc         1 MXI       0.040478
     39 H232        -3.5350    -5.1490    -0.2250 hc         1 MXI       0.040478
     40 H233        -2.3030    -4.3140    -1.1720 hc         1 MXI       0.040478
     41 H251        -5.0670    -2.1500     1.3650 hc         1 MXI       0.040478
     42 H252        -5.1010    -3.9040     1.2560 hc         1 MXI       0.040478
     43 H253        -3.7740    -3.1020     2.0990 hc         1 MXI       0.040478
     44 H21          1.0500    -2.0770     0.7840 ha         1 MXI       0.145000
     45 H13          0.2240     1.5680    -1.3120 ha         1 MXI       0.136000
     46 H19          3.3950    -2.7300     1.2000 ha         1 MXI       0.131000
     47 H14          2.6030     2.0350    -1.4960 ha         1 MXI       0.133000
     48 H16          4.9640     1.3970    -1.0390 ha         1 MXI       0.145000
     49 H18          5.7720    -2.2890     1.0210 ha         1 MXI       0.133000
     50 H281         8.7730    -0.5130     0.1410 h1         1 MXI       0.039700
     51 H282         7.7120    -1.0910     1.4360 h1         1 MXI       0.039700
     52 H283         7.7670    -1.9480    -0.1210 h1         1 MXI       0.039700
@<TRIPOS>BOND
     1     1     2 1   
     2     1    29 1   
     3     1    30 1   
     4     2     3 ar  
     5     2     6 ar  
     6     3     4 ar  
     7     4     5 ar  
     8     4    32 1   
     9     5     7 ar  
    10     5    33 1   
    11     6     7 ar  
    12     6    31 1   
    13     7     8 1   
    14     8     9 1   
    15     8    15 2   
    16     9    10 1   
    17     9    34 1   
    18    10    11 1   
    19    10    16 2   
    20    11    12 1   
    21    11    13 1   
    22    11    14 1   
    23    12    35 1   
    24    12    36 1   
    25    12    37 1   
    26    13    38 1   
    27    13    39 1   
    28    13    40 1   
    29    14    41 1   
    30    14    42 1   
    31    14    43 1   
    32    15    16 1   
    33    15    17 1   
    34    17    18 ar  
    35    17    22 ar  
    36    18    19 ar  
    37    18    44 1   
    38    19    20 ar  
    39    19    23 ar  
    40    20    21 ar  
    41    20    26 ar  
    42    21    22 ar  
    43    21    47 1   
    44    22    45 1   
    45    23    24 ar  
    46    23    46 1   
    47    24    25 ar  
    48    24    49 1   
    49    25    26 ar  
    50    25    27 1   
    51    26    48 1   
    52    27    28 1   
    53    28    50 1   
    54    28    51 1   
    55    28    52 1   
@<TRIPOS>SUBSTRUCTURE
     1 MXI         1 TEMP              0 ****  ****    0 ROOT
