@<TRIPOS>MOLECULE
MXJ
   46    47     1     0     0
SMALL
No Charge or Current Charge


@<TRIPOS>ATOM
      1 C01          5.5540     5.1500    -0.7190 c3         1 MXJ      -0.089100
      2 C02          4.5530     3.9850    -0.5930 c3         1 MXJ      -0.091400
      3 C03          5.2340     2.6410    -0.2720 c3         1 MXJ       0.101000
      4 C05          4.5810     0.2490     0.1050 c          1 MXJ       0.636100
      5 C07          2.1230    -0.2680    -0.2530 c6         1 MXJ       0.100000
      6 C08          0.9980    -1.2440     0.1680 c6         1 MXJ      -0.175700
      7 C09         -0.3750    -0.8480    -0.4140 c          1 MXJ       0.609100
      8 C12         -2.6750    -0.0330     0.3990 ca         1 MXJ       0.011000
      9 C13         -3.3480     0.0900    -0.8370 ca         1 MXJ      -0.176000
     10 C14         -4.6840     0.5220    -0.8760 ca         1 MXJ       0.211000
     11 C16         -5.3670     0.8380     0.3120 ca         1 MXJ       0.036000
     12 C18         -4.7050     0.7180     1.5440 ca         1 MXJ      -0.047000
     13 C19         -3.3670     0.2850     1.5830 ca         1 MXJ      -0.183000
     14 C20          1.3410    -2.7350    -0.0270 c6         1 MXJ      -0.070400
     15 C21          2.6480    -3.0470     0.7220 c6         1 MXJ       0.135500
     16 C22          3.8040    -2.1300     0.2280 c6         1 MXJ       0.091000
     17 F15         -5.3080     0.6320    -2.0710 f          1 MXJ      -0.157000
     18 N04          4.2590     1.5580    -0.1590 ns         1 MXJ      -0.509900
     19 N06          3.5040    -0.6610     0.1770 n          1 MXJ      -0.400800
     20 N11         -1.3250    -0.4620     0.5230 ns         1 MXJ      -0.146000
     21 N23          2.9890    -4.4800     0.5810 n8         1 MXJ      -0.996200
     22 O10         -0.5740    -0.8830    -1.6220 o          1 MXJ      -0.564100
     23 O24          5.7400    -0.1000     0.2700 o          1 MXJ      -0.632100
     24 Cl1         -7.0450     1.3810     0.2760 cl         1 MXJ      -0.167000
     25 H1           5.0270     6.0840    -0.9470 hc         1 MXJ       0.037367
     26 H2           6.1080     5.2890     0.2170 hc         1 MXJ       0.037367
     27 H3           6.2740     4.9570    -1.5230 hc         1 MXJ       0.037367
     28 H4           3.8280     4.2220     0.1950 hc         1 MXJ       0.039700
     29 H5           3.9920     3.8930    -1.5310 hc         1 MXJ       0.039700
     30 H6           5.9510     2.3920    -1.0670 h1         1 MXJ       0.053700
     31 H7           5.7840     2.7230     0.6750 h1         1 MXJ       0.053700
     32 H8           2.1240    -0.1800    -1.3500 h1         1 MXJ       0.062700
     33 H9           1.8730     0.7230     0.1510 h1         1 MXJ       0.062700
     34 H10          0.8990    -1.1100     1.2550 hc         1 MXJ       0.060700
     35 H11         -2.8620    -0.1420    -1.7790 ha         1 MXJ       0.170000
     36 H12         -5.2270     0.9610     2.4670 ha         1 MXJ       0.132000
     37 H13         -2.8660     0.1980     2.5450 ha         1 MXJ       0.118000
     38 H14          0.5240    -3.3650     0.3540 hc         1 MXJ       0.064700
     39 H15          1.4500    -2.9630    -1.0970 hc         1 MXJ       0.064700
     40 H16          2.4880    -2.8590     1.7950 h1         1 MXJ       0.028700
     41 H17          4.6730    -2.3010     0.8790 h1         1 MXJ       0.076200
     42 H18          4.0970    -2.4480    -0.7820 h1         1 MXJ       0.076200
     43 H19          3.2800     1.7760    -0.2810 hn         1 MXJ       0.301500
     44 H20         -0.9960    -0.4920     1.4800 hn         1 MXJ       0.155000
     45 H21          3.7730    -4.7010     1.2080 hn         1 MXJ       0.400500
     46 H22          2.2190    -5.0440     0.9600 hn         1 MXJ       0.400500
@<TRIPOS>BOND
     1     1     2 1   
     2     1    25 1   
     3     1    26 1   
     4     1    27 1   
     5     2     3 1   
     6     2    28 1   
     7     2    29 1   
     8     3    18 1   
     9     3    30 1   
    10     3    31 1   
    11     4    18 1   
    12     4    19 1   
    13     4    23 2   
    14     5     6 1   
    15     5    19 1   
    16     5    32 1   
    17     5    33 1   
    18     6     7 1   
    19     6    14 1   
    20     6    34 1   
    21     7    20 1   
    22     7    22 2   
    23     8     9 ar  
    24     8    13 ar  
    25     8    20 1   
    26     9    10 ar  
    27     9    35 1   
    28    10    11 ar  
    29    10    17 1   
    30    11    12 ar  
    31    11    24 1   
    32    12    13 ar  
    33    12    36 1   
    34    13    37 1   
    35    14    15 1   
    36    14    38 1   
    37    14    39 1   
    38    15    16 1   
    39    15    21 1   
    40    15    40 1   
    41    16    19 1   
    42    16    41 1   
    43    16    42 1   
    44    18    43 1   
    45    20    44 1   
    46    21    45 1   
    47    21    46 1   
@<TRIPOS>SUBSTRUCTURE
     1 MXJ         1 TEMP              0 ****  ****    0 ROOT
