@<TRIPOS>MOLECULE
MXJ
   46    47     1     0     0
SMALL
bcc


@<TRIPOS>ATOM
      1 C01          4.5940     4.8860     0.4510 c3         1 MXJ      -0.089100
      2 C02          3.7410     3.6790     0.0900 c3         1 MXJ      -0.091400
      3 C03          4.5690     2.4040     0.0280 c3         1 MXJ       0.101000
      4 C05          4.2050     0.0090    -0.2860 c          1 MXJ       0.770100
      5 C07          2.0060    -0.8220    -1.1050 c6         1 MXJ       0.100000
      6 C08          1.1860    -1.3030     0.1050 c6         1 MXJ      -0.175700
      7 C09         -0.2870    -1.1640    -0.2200 c          1 MXJ       0.676100
      8 C12         -2.1990     0.3530     0.2580 ca         1 MXJ       0.103600
      9 C13         -3.1600    -0.2500    -0.5520 ca         1 MXJ      -0.194000
     10 C14         -4.4230     0.3060    -0.6110 ca         1 MXJ       0.175900
     11 C16         -4.7720     1.4360     0.1050 ca         1 MXJ      -0.055600
     12 C18         -3.8130     2.0300     0.9100 ca         1 MXJ      -0.065000
     13 C19         -2.5420     1.4960     0.9870 ca         1 MXJ      -0.201000
     14 C20          1.5560    -2.7490     0.4330 c6         1 MXJ      -0.070400
     15 C21          3.0610    -2.9130     0.6150 c6         1 MXJ       0.135500
     16 C22          3.7830    -2.3600    -0.6120 c6         1 MXJ       0.091000
     17 F15         -5.3380    -0.2740    -1.3900 f          1 MXJ      -0.121900
     18 N04          3.7380     1.2830    -0.3630 ns         1 MXJ      -0.576900
     19 N06          3.4220    -0.9740    -0.8480 n          1 MXJ      -0.467800
     20 N11         -0.8930    -0.1130     0.3940 ns         1 MXJ      -0.472100
     21 N23          3.3800    -4.3230     0.7590 n8         1 MXJ      -0.885800
     22 O10         -0.8510    -1.9130    -0.9960 o          1 MXJ      -0.564100
     23 O24          5.2770    -0.2480     0.2500 o          1 MXJ      -0.632100
     24 CL1         -6.3680     2.0740    -0.0130 cl         1 MXJ      -0.075400
     25 H1           3.9930     5.7950     0.4890 hc         1 MXJ       0.037367
     26 H2           5.0660     4.7620     1.4270 hc         1 MXJ       0.037367
     27 H3           5.3870     5.0440    -0.2820 hc         1 MXJ       0.037367
     28 H4           2.9390     3.5540     0.8220 hc         1 MXJ       0.039700
     29 H5           3.2600     3.8510    -0.8780 hc         1 MXJ       0.039700
     30 H6           5.4040     2.5410    -0.6690 h1         1 MXJ       0.053700
     31 H7           5.0030     2.2020     1.0080 h1         1 MXJ       0.053700
     32 H8           1.7500    -1.4260    -1.9780 h1         1 MXJ       0.062700
     33 H9           1.7440     0.2030    -1.3620 h1         1 MXJ       0.062700
     34 H10          1.4410    -0.6630     0.9580 hc         1 MXJ       0.060700
     35 H11         -2.9500    -1.1350    -1.1310 ha         1 MXJ       0.188000
     36 H12         -4.0600     2.9160     1.4800 ha         1 MXJ       0.150000
     37 H13         -1.8080     1.9730     1.6240 ha         1 MXJ       0.136000
     38 H14          1.0300    -3.0730     1.3360 hc         1 MXJ       0.064700
     39 H15          1.2320    -3.4020    -0.3830 hc         1 MXJ       0.064700
     40 H16          3.3740    -2.3140     1.4860 h1         1 MXJ       0.028700
     41 H17          4.8620    -2.4500    -0.5060 h1         1 MXJ       0.076200
     42 H18          3.4890    -2.9440    -1.4900 h1         1 MXJ       0.076200
     43 H19          3.0200     1.4990    -1.0340 hn         1 MXJ       0.301500
     44 H20         -0.3160     0.4220     1.0250 hn         1 MXJ       0.321500
     45 H21          4.3620    -4.4270     0.9870 hn         1 MXJ       0.345300
     46 H22          2.8760    -4.7040     1.5500 hn         1 MXJ       0.345300
@<TRIPOS>BOND
     1     1     2 1   
     2     1    25 1   
     3     1    26 1   
     4     1    27 1   
     5     2     3 1   
     6     2    28 1   
     7     2    29 1   
     8     3    18 1   
     9     3    30 1   
    10     3    31 1   
    11     4    18 1   
    12     4    19 1   
    13     4    23 2   
    14     5     6 1   
    15     5    19 1   
    16     5    32 1   
    17     5    33 1   
    18     6     7 1   
    19     6    14 1   
    20     6    34 1   
    21     7    20 1   
    22     7    22 2   
    23     8     9 ar  
    24     8    13 ar  
    25     8    20 1   
    26     9    10 ar  
    27     9    35 1   
    28    10    11 ar  
    29    10    17 1   
    30    11    12 ar  
    31    11    24 1   
    32    12    13 ar  
    33    12    36 1   
    34    13    37 1   
    35    14    15 1   
    36    14    38 1   
    37    14    39 1   
    38    15    16 1   
    39    15    21 1   
    40    15    40 1   
    41    16    19 1   
    42    16    41 1   
    43    16    42 1   
    44    18    43 1   
    45    20    44 1   
    46    21    45 1   
    47    21    46 1   
@<TRIPOS>SUBSTRUCTURE
     1 MXJ         1 TEMP              0 ****  ****    0 ROOT
