@<TRIPOS>MOLECULE
MXK
   48    50     1     0     0
SMALL
bcc


@<TRIPOS>ATOM
      1 C13        135.6680   110.0910    39.1010 c3         1 MXK       0.174000
      2 C15        135.6050   112.4270    38.1200 c          1 MXK       0.604800
      3 C17        137.0270   112.6350    38.5110 ce         1 MXK       0.307200
      4 C20        136.2730   109.1240    38.1070 ca         1 MXK      -0.120300
      5 C22        136.1150   107.7910    36.1020 ca         1 MXK      -0.125000
      6 C24        138.1080   107.7020    37.4380 ca         1 MXK      -0.125000
      7 C02        133.9560   116.7060    40.4570 cc         1 MXK       0.433800
      8 C04        133.0210   117.3920    42.2560 cd         1 MXK       0.301200
      9 C05        132.3690   116.2490    41.9090 cc         1 MXK      -0.269600
     10 C08        133.4230   113.4350    40.6030 cc         1 MXK       0.247600
     11 C09        133.0420   112.1220    40.7030 cd         1 MXK      -0.239600
     12 C11        134.3750   110.0800    41.3200 c3         1 MXK       0.047300
     13 C25        137.5490   108.6160    38.3230 ca         1 MXK      -0.114000
     14 C01        134.8420   116.5730    39.2720 c3         1 MXK      -0.128400
     15 C12        134.6220   109.3930    39.9810 c3         1 MXK      -0.109400
     16 C21        135.5610   108.7050    36.9850 ca         1 MXK      -0.114000
     17 C23        137.3910   107.2860    36.3250 ca         1 MXK      -0.117000
     18 N03        134.0050   117.6690    41.3460 nd         1 MXK      -0.686000
     19 N06        132.9680   115.8260    40.7520 na         1 MXK      -0.184900
     20 N10        134.1300   111.5010    41.1860 na         1 MXK       0.106400
     21 N14        135.0600   111.2370    38.4460 ns         1 MXK      -0.580900
     22 N18        137.4770   113.8160    38.4160 n2         1 MXK      -0.354200
     23 N26        135.1160   112.3600    41.3750 nd         1 MXK      -0.207800
     24 N27        134.6980   113.5290    41.0310 nc         1 MXK      -0.332000
     25 O16        134.9690   113.2890    37.5350 o          1 MXK      -0.580100
     26 O19        138.7700   113.9190    38.7770 oh         1 MXK      -0.368500
     27 H1         136.4640   110.4410    39.7610 h1         1 MXK       0.078700
     28 H2         137.6550   111.8130    38.8450 h4         1 MXK       0.015800
     29 H3         135.5510   107.4710    35.2350 ha         1 MXK       0.135500
     30 H4         139.1050   107.3210    37.6170 ha         1 MXK       0.135500
     31 H6         131.5510   115.7120    42.3600 h4         1 MXK       0.167000
     32 H9         132.1240   111.6090    40.4700 h4         1 MXK       0.183000
     33 H10        133.5250   109.6240    41.8270 h1         1 MXK       0.077700
     34 H11        135.2450   109.9770    41.9660 h1         1 MXK       0.077700
     35 H12        138.1150   108.9410    39.1880 ha         1 MXK       0.130000
     36 H13        135.5400   117.4070    39.2520 hc         1 MXK       0.059700
     37 H14        135.4150   115.6450    39.2900 hc         1 MXK       0.059700
     38 H15        134.2770   116.5850    38.3390 hc         1 MXK       0.059700
     39 H16        133.6870   109.2820    39.4240 hc         1 MXK       0.064700
     40 H17        134.9650   108.3820    40.2040 hc         1 MXK       0.064700
     41 H18        134.5690   109.0930    36.7890 ha         1 MXK       0.130000
     42 H19        137.8250   106.5770    35.6320 ha         1 MXK       0.136000
     43 H20        134.1060   111.1210    38.1310 hn         1 MXK       0.309500
     44 H21        138.9820   114.8530    38.6670 ho         1 MXK       0.442000
     45 C07        132.6730   114.6000    40.0500 c3         1 MXK       0.030000
     46 H5         132.8320   118.0320    43.1050 h4         1 MXK       0.032100
     47 H7         131.6010   114.4150    40.0910 h1         1 MXK       0.073700
     48 H8         132.9290   114.7340    38.9970 h1         1 MXK       0.073700
@<TRIPOS>BOND
     1     1     4 1   
     2     1    15 1   
     3     1    21 1   
     4     1    27 1   
     5     2     3 1   
     6     2    21 1   
     7     2    25 2   
     8     3    22 2   
     9     3    28 1   
    10     4    13 ar  
    11     4    16 ar  
    12     5    16 ar  
    13     5    17 ar  
    14     5    29 1   
    15     6    13 ar  
    16     6    17 ar  
    17     6    30 1   
    18     7    14 1   
    19     7    18 2   
    20     7    19 1   
    21     8     9 2   
    22     8    18 1   
    23     8    46 1   
    24     9    19 1   
    25     9    31 1   
    26    10    11 2   
    27    10    24 1   
    28    10    45 1   
    29    11    20 1   
    30    11    32 1   
    31    12    15 1   
    32    12    20 1   
    33    12    33 1   
    34    12    34 1   
    35    13    35 1   
    36    14    36 1   
    37    14    37 1   
    38    14    38 1   
    39    15    39 1   
    40    15    40 1   
    41    16    41 1   
    42    17    42 1   
    43    19    45 1   
    44    20    23 1   
    45    21    43 1   
    46    22    26 1   
    47    23    24 2   
    48    26    44 1   
    49    45    47 1   
    50    45    48 1   
@<TRIPOS>SUBSTRUCTURE
     1 MXK         1 TEMP              0 ****  ****    0 ROOT
