@<TRIPOS>MOLECULE
MXK
   48    50     1     0     0
SMALL
No Charge or Current Charge


@<TRIPOS>ATOM
      1 C13        135.7240   110.0340    39.0450 c3         1 MXK       0.174000
      2 C15        135.8280   112.3870    38.0500 c          1 MXK       0.537800
      3 C17        137.2960   112.5220    38.4070 ce         1 MXK       0.307200
      4 C20        136.2840   109.0440    38.0270 ca         1 MXK      -0.120300
      5 C22        135.9700   107.5590    36.1120 ca         1 MXK      -0.107000
      6 C24        138.1720   107.7870    37.1180 ca         1 MXK      -0.107000
      7 C02        133.8250   116.8090    40.4280 cc         1 MXK       0.433800
      8 C04        132.8220   117.7190    42.1060 cd         1 MXK       0.235900
      9 C05        132.1980   116.5140    41.9140 cc         1 MXK      -0.237000
     10 C08        133.3550   113.4640    40.7570 cc         1 MXK       0.182300
     11 C09        133.0620   112.1380    40.6720 cd         1 MXK      -0.207000
     12 C11        134.4460   110.0870    41.3190 c3         1 MXK       0.076600
     13 C25        137.6510   108.6960    38.0550 ca         1 MXK      -0.096000
     14 C01        134.7590   116.5740    39.2740 c3         1 MXK      -0.128400
     15 C12        134.6460   109.3850    39.9500 c3         1 MXK      -0.109400
     16 C21        135.4480   108.4680    37.0480 ca         1 MXK      -0.096000
     17 C23        137.3330   107.2180    36.1460 ca         1 MXK      -0.099000
     18 N03        133.8280   117.8990    41.1790 nd         1 MXK      -0.686000
     19 N06        132.8370   115.9320    40.8400 na         1 MXK      -0.163500
     20 N10        134.1630   111.5290    41.2270 na         1 MXK       0.127800
     21 N14        135.1750   111.2030    38.3500 ns         1 MXK      -0.513900
     22 N18        137.7850   113.6930    38.7070 n2         1 MXK      -0.255700
     23 N26        135.0710   112.4680    41.6440 nd         1 MXK      -0.207800
     24 N27        134.5710   113.6420    41.3580 nc         1 MXK      -0.332000
     25 O16        135.1660   113.2990    37.5650 o          1 MXK      -0.580100
     26 O19        139.1260   113.6740    39.1320 oh         1 MXK      -0.506000
     27 H1         136.5390   110.3510    39.7090 h1         1 MXK       0.078700
     28 H2         137.8570   111.6160    38.6400 h4         1 MXK       0.015800
     29 H3         135.3190   107.1190    35.3590 ha         1 MXK       0.117500
     30 H4         139.2270   107.5230    37.1460 ha         1 MXK       0.117500
     31 H6         131.3780   116.0490    42.4470 h4         1 MXK       0.149000
     32 H9         132.2140   111.6090    40.2560 h4         1 MXK       0.165000
     33 H10        133.6160   109.6090    41.8540 h1         1 MXK       0.077700
     34 H11        135.3490   109.9500    41.9270 h1         1 MXK       0.077700
     35 H12        138.3130   109.1260    38.8040 ha         1 MXK       0.112000
     36 H13        135.4320   117.4270    39.1310 hc         1 MXK       0.059700
     37 H14        135.3740   115.6850    39.4470 hc         1 MXK       0.059700
     38 H15        134.1980   116.4280    38.3440 hc         1 MXK       0.059700
     39 H16        133.6900   109.3370    39.4150 hc         1 MXK       0.064700
     40 H17        134.9360   108.3470    40.1540 hc         1 MXK       0.064700
     41 H18        134.3920   108.7250    37.0090 ha         1 MXK       0.112000
     42 H19        137.7370   106.5150    35.4210 ha         1 MXK       0.118000
     43 H20        134.1980   111.1760    38.0900 hn         1 MXK       0.309500
     44 H21        139.3470   114.6190    39.3180 ho         1 MXK       0.481000
     45 C07        132.5190   114.6160    40.2490 c3         1 MXK       0.059300
     46 H5         132.6020   118.4660    42.8590 h4         1 MXK       0.032100
     47 H7         131.4640   114.3940    40.4480 h1         1 MXK       0.073700
     48 H8         132.6370   114.6780    39.1600 h1         1 MXK       0.073700
@<TRIPOS>BOND
     1     1     4 1   
     2     1    15 1   
     3     1    21 1   
     4     1    27 1   
     5     2     3 1   
     6     2    21 1   
     7     2    25 2   
     8     3    22 2   
     9     3    28 1   
    10     4    13 ar  
    11     4    16 ar  
    12     5    16 ar  
    13     5    17 ar  
    14     5    29 1   
    15     6    13 ar  
    16     6    17 ar  
    17     6    30 1   
    18     7    14 1   
    19     7    18 2   
    20     7    19 1   
    21     8     9 2   
    22     8    18 1   
    23     8    46 1   
    24     9    19 1   
    25     9    31 1   
    26    10    11 2   
    27    10    24 1   
    28    10    45 1   
    29    11    20 1   
    30    11    32 1   
    31    12    15 1   
    32    12    20 1   
    33    12    33 1   
    34    12    34 1   
    35    13    35 1   
    36    14    36 1   
    37    14    37 1   
    38    14    38 1   
    39    15    39 1   
    40    15    40 1   
    41    16    41 1   
    42    17    42 1   
    43    19    45 1   
    44    20    23 1   
    45    21    43 1   
    46    22    26 1   
    47    23    24 2   
    48    26    44 1   
    49    45    47 1   
    50    45    48 1   
@<TRIPOS>SUBSTRUCTURE
     1 MXK         1 TEMP              0 ****  ****    0 ROOT
