@<TRIPOS>MOLECULE
MXL
   54    57     1     0     0
SMALL
abcg2


@<TRIPOS>ATOM
      1 O1           1.3390     2.5060     2.3800 o          1 MXL      -0.471000
      2 C1           1.0500     2.3070     1.2330 c          1 MXL       0.590000
      3 C2           1.7800     2.4090    -0.1400 cy         1 MXL       0.250400
      4 C3           0.4060     1.9920    -0.7380 cy         1 MXL       0.270700
      5 N1          -0.1240     1.9950     0.6040 nj         1 MXL      -0.315000
      6 C4          -1.2720     1.2840     0.9350 ce         1 MXL       0.080400
      7 C5          -1.6960     0.4220    -0.0030 c2         1 MXL      -0.315400
      8 C6          -0.9220     0.1770    -1.2760 c6         1 MXL       0.216800
      9 O2           0.3800     0.7280    -1.2990 os         1 MXL      -0.433000
     10 C7          -1.9640     1.6470     2.2460 c          1 MXL       0.723200
     11 O3          -2.5810     0.7410     2.8300 o          1 MXL      -0.694500
     12 O4          -1.8370     2.8330     2.5860 o          1 MXL      -0.694500
     13 C8          -3.0030    -0.3000     0.0670 c3         1 MXL       0.181800
     14 O5           2.1200     3.6860    -0.5460 os         1 MXL      -0.448000
     15 C9           3.1230     4.3310     0.2260 c3         1 MXL       0.157900
     16 N2           2.8590     1.5070    -0.3410 ns         1 MXL      -0.529900
     17 C10          2.9250     0.2820     0.2170 c          1 MXL       0.614100
     18 O6           2.1670    -0.1020     1.0910 o          1 MXL      -0.616100
     19 C11          4.0850    -0.5800    -0.2880 c3         1 MXL      -0.246400
     20 C12          4.3970    -0.4480    -1.8170 c          1 MXL       0.734000
     21 O7           4.6350    -1.4870    -2.4370 o          1 MXL      -0.708000
     22 O8           4.4280     0.7200    -2.2790 o          1 MXL      -0.708000
     23 C13          3.9250    -2.0010     0.1560 ca         1 MXL      -0.014300
     24 C14          4.8400    -2.5950     1.0140 ca         1 MXL      -0.049000
     25 C15          4.7120    -3.9190     1.4200 ca         1 MXL      -0.183000
     26 C16          3.6410    -4.6780     0.9650 ca         1 MXL       0.100100
     27 C17          2.7070    -4.0950     0.1090 ca         1 MXL      -0.183000
     28 C18          2.8560    -2.7760    -0.2850 ca         1 MXL      -0.049000
     29 O9           3.5480    -5.9610     1.3770 oh         1 MXL      -0.561100
     30 S1          -4.2760     0.8670    -0.5490 ss         1 MXL      -0.362300
     31 C19         -5.6400    -0.1870    -0.6830 cc         1 MXL       0.508800
     32 N3          -5.7170    -1.4710    -0.4160 nd         1 MXL      -0.409000
     33 N4          -6.9780    -1.8190    -0.6830 nd         1 MXL      -0.060000
     34 N5          -7.6580    -0.8260    -1.0910 nc         1 MXL      -0.252800
     35 N6          -6.8410     0.2230    -1.1030 na         1 MXL      -0.088700
     36 C20         -7.2630     1.5440    -1.5080 c3         1 MXL       0.075900
     37 H31         -0.0730     2.7380    -1.3850 h2         1 MXL       0.066700
     38 H61         -0.7940    -0.9000    -1.4090 h1         1 MXL       0.031700
     39 H62         -1.5120     0.5330    -2.1340 h1         1 MXL       0.031700
     40 H81         -3.0060    -1.1750    -0.5820 h1         1 MXL       0.090700
     41 H82         -3.2610    -0.5910     1.0790 h1         1 MXL       0.090700
     42 H91          2.7640     4.5910     1.2240 h1         1 MXL       0.031367
     43 H92          4.0230     3.7210     0.3250 h1         1 MXL       0.031367
     44 H93          3.3800     5.2470    -0.3010 h1         1 MXL       0.031367
     45 HN21         3.4400     1.5950    -1.1900 hn         1 MXL       0.387500
     46 H111         4.9740    -0.1640     0.2090 hc         1 MXL       0.055700
     47 H141         5.6820    -2.0190     1.3820 ha         1 MXL       0.112000
     48 H151         5.4430    -4.3600     2.0870 ha         1 MXL       0.096000
     49 H171         1.8650    -4.6740    -0.2540 ha         1 MXL       0.096000
     50 H181         2.1160    -2.3460    -0.9510 ha         1 MXL       0.112000
     51 HO91         2.7780    -6.3830     0.9810 ho         1 MXL       0.447000
     52 H201        -6.6540     1.8900    -2.3410 h1         1 MXL       0.059033
     53 H202        -8.3000     1.4910    -1.8200 h1         1 MXL       0.059033
     54 H203        -7.1710     2.2380    -0.6750 h1         1 MXL       0.059033
@<TRIPOS>BOND
     1     1     2 2   
     2     2     3 1   
     3     2     5 1   
     4     3     4 1   
     5     3    14 1   
     6     3    16 1   
     7     4     5 1   
     8     4     9 1   
     9     4    37 1   
    10     5     6 1   
    11     6     7 2   
    12     6    10 1   
    13     7     8 1   
    14     7    13 1   
    15     8     9 1   
    16     8    38 1   
    17     8    39 1   
    18    10    11 1   
    19    10    12 1   
    20    13    30 1   
    21    13    40 1   
    22    13    41 1   
    23    14    15 1   
    24    15    42 1   
    25    15    43 1   
    26    15    44 1   
    27    16    17 1   
    28    16    45 1   
    29    17    18 2   
    30    17    19 1   
    31    19    20 1   
    32    19    23 1   
    33    19    46 1   
    34    20    21 1   
    35    20    22 1   
    36    23    24 ar  
    37    23    28 ar  
    38    24    25 ar  
    39    24    47 1   
    40    25    26 ar  
    41    25    48 1   
    42    26    27 ar  
    43    26    29 1   
    44    27    28 ar  
    45    27    49 1   
    46    28    50 1   
    47    29    51 1   
    48    30    31 1   
    49    31    32 2   
    50    31    35 1   
    51    32    33 1   
    52    33    34 2   
    53    34    35 1   
    54    35    36 1   
    55    36    52 1   
    56    36    53 1   
    57    36    54 1   
@<TRIPOS>SUBSTRUCTURE
     1 MXL         1 TEMP              0 ****  ****    0 ROOT
