@<TRIPOS>MOLECULE
MXL
   54    57     1     0     0
SMALL
No Charge or Current Charge


@<TRIPOS>ATOM
      1 O1           0.7330     0.6440     2.7240 o          1 MXL      -0.471000
      2 C1           0.5200     0.8900     1.5410 c          1 MXL       0.590000
      3 C2           1.3870     1.4340     0.3050 cy         1 MXL       0.250400
      4 C3          -0.0210     1.4640    -0.4340 cy         1 MXL       0.270700
      5 N1          -0.6100     0.8160     0.7260 nj         1 MXL      -0.315000
      6 C4          -2.0430     0.6580     0.7750 ce         1 MXL       0.080400
      7 C5          -2.5310     0.3210    -0.4670 c2         1 MXL      -0.315400
      8 C6          -1.6670     0.3430    -1.7430 c6         1 MXL       0.216800
      9 O2          -0.2620     0.4990    -1.4600 os         1 MXL      -0.433000
     10 C7          -2.8040     0.7290     2.1100 c          1 MXL       0.723200
     11 O3          -3.9950     0.4480     2.1540 o          1 MXL      -0.694500
     12 O4          -2.1970     1.0920     3.1090 o          1 MXL      -0.694500
     13 C8          -3.9840     0.0070    -0.7920 c3         1 MXL       0.181800
     14 O5           1.9290     2.7580     0.4810 os         1 MXL      -0.448000
     15 C9           2.9470     2.9400     1.4840 c3         1 MXL       0.157900
     16 N2           2.4350     0.6160    -0.2760 ns         1 MXL      -0.529900
     17 C10          2.5500    -0.7520    -0.1760 c          1 MXL       0.614100
     18 O6           1.7730    -1.4260     0.4820 o          1 MXL      -0.616100
     19 C11          3.7460    -1.3340    -0.9190 c3         1 MXL      -0.246400
     20 C12          3.2480    -2.1820    -2.0870 c          1 MXL       0.734000
     21 O7           2.6670    -3.2330    -1.8660 o          1 MXL      -0.708000
     22 O8           3.5040    -1.7870    -3.2150 o          1 MXL      -0.708000
     23 C13          4.7360    -2.0650     0.0010 ca         1 MXL      -0.014300
     24 C14          6.0680    -1.6080     0.0930 ca         1 MXL      -0.049000
     25 C15          6.9900    -2.2580     0.9330 ca         1 MXL      -0.183000
     26 C16          6.5920    -3.3690     1.6870 ca         1 MXL       0.100100
     27 C17          5.2720    -3.8350     1.6060 ca         1 MXL      -0.183000
     28 C18          4.3470    -3.1860     0.7670 ca         1 MXL      -0.049000
     29 O9           7.4890    -3.9940     2.4980 oh         1 MXL      -0.561100
     30 S1          -4.8680     1.6060    -1.0650 ss         1 MXL      -0.362300
     31 C19         -6.5040     1.0530    -1.4080 cc         1 MXL       0.508800
     32 N3          -6.9060    -0.1920    -1.4910 nd         1 MXL      -0.409000
     33 N4          -8.2480    -0.1050    -1.7980 nd         1 MXL      -0.060000
     34 N5          -8.6540     1.1410    -1.9070 nc         1 MXL      -0.252800
     35 N6          -7.5470     1.8910    -1.6620 na         1 MXL      -0.088700
     36 C20         -7.5680     3.3610    -1.6890 c3         1 MXL       0.075900
     37 H31         -0.4420     2.4370    -0.7060 h2         1 MXL       0.066700
     38 H61         -1.8030    -0.5830    -2.3200 h1         1 MXL       0.031700
     39 H62         -1.9850     1.1820    -2.3800 h1         1 MXL       0.031700
     40 H81         -4.0570    -0.5970    -1.7060 h1         1 MXL       0.090700
     41 H82         -4.4690    -0.5640     0.0090 h1         1 MXL       0.090700
     42 H91          2.5680     2.6820     2.4800 h1         1 MXL       0.031367
     43 H92          3.8260     2.3170     1.2750 h1         1 MXL       0.031367
     44 H93          3.2730     3.9870     1.5070 h1         1 MXL       0.031367
     45 HN21         3.1300     1.0730    -0.8510 hn         1 MXL       0.387500
     46 H111         4.2730    -0.4870    -1.3740 hc         1 MXL       0.055700
     47 H141         6.3930    -0.7460    -0.4860 ha         1 MXL       0.112000
     48 H151         8.0130    -1.8950     0.9950 ha         1 MXL       0.096000
     49 H171         4.9540    -4.6960     2.1870 ha         1 MXL       0.096000
     50 H181         3.3280    -3.5610     0.7150 ha         1 MXL       0.112000
     51 HO91         7.0350    -4.7420     2.9420 ho         1 MXL       0.447000
     52 H201        -6.8790     3.7230    -2.4630 h1         1 MXL       0.059033
     53 H202        -8.5810     3.7210    -1.9110 h1         1 MXL       0.059033
     54 H203        -7.2530     3.7510    -0.7130 h1         1 MXL       0.059033
@<TRIPOS>BOND
     1     1     2 2   
     2     2     3 1   
     3     2     5 1   
     4     3     4 1   
     5     3    14 1   
     6     3    16 1   
     7     4     5 1   
     8     4     9 1   
     9     4    37 1   
    10     5     6 1   
    11     6     7 2   
    12     6    10 1   
    13     7     8 1   
    14     7    13 1   
    15     8     9 1   
    16     8    38 1   
    17     8    39 1   
    18    10    11 1   
    19    10    12 1   
    20    13    30 1   
    21    13    40 1   
    22    13    41 1   
    23    14    15 1   
    24    15    42 1   
    25    15    43 1   
    26    15    44 1   
    27    16    17 1   
    28    16    45 1   
    29    17    18 2   
    30    17    19 1   
    31    19    20 1   
    32    19    23 1   
    33    19    46 1   
    34    20    21 1   
    35    20    22 1   
    36    23    24 ar  
    37    23    28 ar  
    38    24    25 ar  
    39    24    47 1   
    40    25    26 ar  
    41    25    48 1   
    42    26    27 ar  
    43    26    29 1   
    44    27    28 ar  
    45    27    49 1   
    46    28    50 1   
    47    29    51 1   
    48    30    31 1   
    49    31    32 2   
    50    31    35 1   
    51    32    33 1   
    52    33    34 2   
    53    34    35 1   
    54    35    36 1   
    55    36    52 1   
    56    36    53 1   
    57    36    54 1   
@<TRIPOS>SUBSTRUCTURE
     1 MXL         1 TEMP              0 ****  ****    0 ROOT
