@<TRIPOS>MOLECULE
MXM
   36    38     1     0     0
SMALL
abcg2


@<TRIPOS>ATOM
      1 CAW          7.0020    -0.7330     0.3710 c3         1 MXM      -0.011800
      2 CAV          5.6500    -0.1410     0.1930 cc         1 MXM      -0.227300
      3 SAT          4.2030    -1.0870     0.3130 ss         1 MXM      -0.118400
      4 CAU          5.3010     1.1420    -0.0710 cd         1 MXM       0.300900
      5 NAS          3.9640     1.4160    -0.1840 nd         1 MXM      -0.659000
      6 CAR          3.2680     0.3470    -0.0080 cc         1 MXM       0.593300
      7 NAP          1.8990     0.2320    -0.0540 ns         1 MXM      -0.476400
      8 CAN          0.9950     1.2520    -0.2330 c          1 MXM       0.643300
      9 OAQ          1.3070     2.4160    -0.3550 o          1 MXM      -0.506100
     10 CAG         -0.4020     0.7650    -0.2480 ce         1 MXM      -0.083200
     11 CAC         -1.4820     1.5730    -0.0950 cf         1 MXM       0.195900
     12 OAH         -1.3350     2.8840     0.0420 oh         1 MXM      -0.474100
     13 CAA         -2.8510     1.0240    -0.0650 ca         1 MXM      -0.046800
     14 CAD         -3.9520     1.8100    -0.3970 ca         1 MXM      -0.109000
     15 CAI         -5.2310     1.2710    -0.3700 ca         1 MXM      -0.059000
     16 CAM         -5.4330    -0.0560    -0.0230 ca         1 MXM      -0.107000
     17 CAF         -4.3490    -0.8610     0.2990 ca         1 MXM      -0.002000
     18 CAB         -3.0820    -0.3110     0.2810 ca         1 MXM      -0.274500
     19 SAE         -1.6640    -1.2770     0.6850 sy         1 MXM       1.161600
     20 OAK         -1.9070    -2.6650     0.3470 o          1 MXM      -0.519000
     21 OAL         -1.2070    -0.9240     2.0130 o          1 MXM      -0.519000
     22 NAJ         -0.5810    -0.6400    -0.4030 nh         1 MXM      -0.590300
     23 CAO         -0.6550    -1.1260    -1.7870 c3         1 MXM       0.176100
     24 H1           7.2070    -1.5080    -0.3690 hc         1 MXM       0.047367
     25 H2           7.7580     0.0440     0.2620 hc         1 MXM       0.047367
     26 H3           7.1210    -1.1800     1.3590 hc         1 MXM       0.047367
     27 H4           6.0170     1.9430    -0.1930 h4         1 MXM       0.041100
     28 H5           1.5030    -0.6840     0.1060 hn         1 MXM       0.348500
     29 H7          -2.1290     3.2920     0.4100 ho         1 MXM       0.480000
     30 H8          -3.8320     2.8410    -0.7040 ha         1 MXM       0.123000
     31 H9          -6.0740     1.8950    -0.6330 ha         1 MXM       0.125000
     32 H10         -6.4320    -0.4690    -0.0090 ha         1 MXM       0.128000
     33 H11         -4.4970    -1.9000     0.5590 ha         1 MXM       0.142000
     34 H14          0.1850    -0.6990    -2.3300 h1         1 MXM       0.060700
     35 H15         -0.5590    -2.2070    -1.8150 h1         1 MXM       0.060700
     36 H16         -1.5790    -0.8210    -2.2840 h1         1 MXM       0.060700
@<TRIPOS>BOND
     1     1     2 1   
     2     1    24 1   
     3     1    25 1   
     4     1    26 1   
     5     2     3 1   
     6     2     4 2   
     7     3     6 1   
     8     4     5 1   
     9     4    27 1   
    10     5     6 2   
    11     6     7 1   
    12     7     8 1   
    13     7    28 1   
    14     8     9 2   
    15     8    10 1   
    16    10    11 2   
    17    10    22 1   
    18    11    12 1   
    19    11    13 1   
    20    12    29 1   
    21    13    14 ar  
    22    13    18 ar  
    23    14    15 ar  
    24    14    30 1   
    25    15    16 ar  
    26    15    31 1   
    27    16    17 ar  
    28    16    32 1   
    29    17    18 ar  
    30    17    33 1   
    31    18    19 1   
    32    19    20 2   
    33    19    21 2   
    34    19    22 1   
    35    22    23 1   
    36    23    34 1   
    37    23    35 1   
    38    23    36 1   
@<TRIPOS>SUBSTRUCTURE
     1 MXM         1 TEMP              0 ****  ****    0 ROOT
