@<TRIPOS>MOLECULE
MXM
   36    38     1     0     0
SMALL
No Charge or Current Charge


@<TRIPOS>ATOM
      1 CAW          7.0530    -0.7600     0.1730 c3         1 MXM      -0.011800
      2 CAV          5.6830    -0.1420     0.0970 cc         1 MXM      -0.227300
      3 SAT          4.2510    -1.1280     0.0880 ss         1 MXM      -0.118400
      4 CAU          5.3620     1.1950     0.0270 cd         1 MXM       0.300900
      5 NAS          4.0030     1.4660    -0.0340 nd         1 MXM      -0.659000
      6 CAR          3.3110     0.3390    -0.0070 cc         1 MXM       0.593300
      7 NAP          1.9430     0.2880    -0.0580 ns         1 MXM      -0.476400
      8 CAN          1.0150     1.3000    -0.1200 c          1 MXM       0.643300
      9 OAQ          1.3230     2.4840    -0.1150 o          1 MXM      -0.506100
     10 CAG         -0.4200     0.7840    -0.1830 ce         1 MXM      -0.083200
     11 CAC         -1.5330     1.5870    -0.0740 cf         1 MXM       0.195900
     12 OAH         -1.4290     2.9170     0.1040 oh         1 MXM      -0.474100
     13 CAA         -2.9350     1.0870    -0.0730 ca         1 MXM      -0.046800
     14 CAD         -4.0370     1.9000    -0.4330 ca         1 MXM      -0.109000
     15 CAI         -5.3420     1.3750    -0.4370 ca         1 MXM      -0.059000
     16 CAM         -5.5640     0.0330    -0.0910 ca         1 MXM      -0.107000
     17 CAF         -4.4820    -0.7910     0.2570 ca         1 MXM      -0.002000
     18 CAB         -3.1750    -0.2640     0.2670 ca         1 MXM      -0.274500
     19 SAE         -1.7840    -1.3110     0.7110 sy         1 MXM       1.161600
     20 OAK         -2.0530    -2.6890     0.2820 o          1 MXM      -0.519000
     21 OAL         -1.3880    -1.0040     2.0910 o          1 MXM      -0.519000
     22 NAJ         -0.5890    -0.6270    -0.3110 nh         1 MXM      -0.590300
     23 CAO         -0.3580    -1.3120    -1.6000 c3         1 MXM       0.176100
     24 H1           7.2310    -1.4230    -0.6820 hc         1 MXM       0.047367
     25 H2           7.8360     0.0080     0.1720 hc         1 MXM       0.047367
     26 H3           7.1650    -1.3520     1.0900 hc         1 MXM       0.047367
     27 H4           6.0710     2.0140     0.0160 h4         1 MXM       0.041100
     28 H5           1.5180    -0.6270    -0.0370 hn         1 MXM       0.348500
     29 H7          -2.3170     3.2460     0.3450 ho         1 MXM       0.480000
     30 H8          -3.8990     2.9340    -0.7400 ha         1 MXM       0.123000
     31 H9          -6.1810     2.0070    -0.7190 ha         1 MXM       0.125000
     32 H10         -6.5740    -0.3710    -0.0980 ha         1 MXM       0.128000
     33 H11         -4.6630    -1.8330     0.5200 ha         1 MXM       0.142000
     34 H14          0.3200    -0.7280    -2.2350 h1         1 MXM       0.060700
     35 H15          0.0880    -2.3020    -1.4380 h1         1 MXM       0.060700
     36 H16         -1.3040    -1.4400    -2.1440 h1         1 MXM       0.060700
@<TRIPOS>BOND
     1     1     2 1   
     2     1    24 1   
     3     1    25 1   
     4     1    26 1   
     5     2     3 1   
     6     2     4 2   
     7     3     6 1   
     8     4     5 1   
     9     4    27 1   
    10     5     6 2   
    11     6     7 1   
    12     7     8 1   
    13     7    28 1   
    14     8     9 2   
    15     8    10 1   
    16    10    11 2   
    17    10    22 1   
    18    11    12 1   
    19    11    13 1   
    20    12    29 1   
    21    13    14 ar  
    22    13    18 ar  
    23    14    15 ar  
    24    14    30 1   
    25    15    16 ar  
    26    15    31 1   
    27    16    17 ar  
    28    16    32 1   
    29    17    18 ar  
    30    17    33 1   
    31    18    19 1   
    32    19    20 2   
    33    19    21 2   
    34    19    22 1   
    35    22    23 1   
    36    23    34 1   
    37    23    35 1   
    38    23    36 1   
@<TRIPOS>SUBSTRUCTURE
     1 MXM         1 TEMP              0 ****  ****    0 ROOT
