@<TRIPOS>MOLECULE
MXN
   17    17     1     0     0
SMALL
bcc


@<TRIPOS>ATOM
      1 C1           0.0650    -0.0660     0.2230 ca         1 MXN      -0.136300
      2 C2           0.9540    -0.8280     0.9710 ca         1 MXN      -0.106000
      3 C3           2.3120    -0.8010     0.6850 ca         1 MXN      -0.127000
      4 C4           2.7890    -0.0030    -0.3440 ca         1 MXN      -0.112000
      5 C5           1.9040     0.7630    -1.0940 ca         1 MXN      -0.127000
      6 C6           0.5460     0.7310    -0.8130 ca         1 MXN      -0.106000
      7 C7          -1.4010    -0.0540     0.5900 c3         1 MXN       0.270500
      8 C8          -2.2360    -0.2190    -0.6180 c1         1 MXN       0.172700
      9 N9          -2.9050    -0.3420    -1.5460 n1         1 MXN      -0.354800
     10 O10         -1.7970     1.0790     1.3090 oh         1 MXN      -0.567800
     11 H2           0.5850    -1.4510     1.7770 ha         1 MXN       0.135000
     12 H3           2.9950    -1.4070     1.2660 ha         1 MXN       0.136000
     13 H4           3.8480     0.0200    -0.5660 ha         1 MXN       0.135000
     14 H5           2.2700     1.3850    -1.9000 ha         1 MXN       0.136000
     15 H6          -0.1340     1.3220    -1.4150 ha         1 MXN       0.135000
     16 H7          -1.6140    -0.9160     1.2270 h1         1 MXN       0.099700
     17 HO10        -1.5010     1.8730     0.8470 ho         1 MXN       0.416000
@<TRIPOS>BOND
     1     1     2 ar  
     2     1     6 ar  
     3     1     7 1   
     4     2     3 ar  
     5     2    11 1   
     6     3     4 ar  
     7     3    12 1   
     8     4     5 ar  
     9     4    13 1   
    10     5     6 ar  
    11     5    14 1   
    12     6    15 1   
    13     7     8 1   
    14     7    10 1   
    15     7    16 1   
    16     8     9 3   
    17    10    17 1   
@<TRIPOS>SUBSTRUCTURE
     1 MXN         1 TEMP              0 ****  ****    0 ROOT
