@<TRIPOS>MOLECULE
MXN
   17    17     1     0     0
SMALL
No Charge or Current Charge


@<TRIPOS>ATOM
      1 C1           0.0520    -0.0260     0.2630 ca         1 MXN      -0.136300
      2 C2           0.9450    -0.8700     0.9580 ca         1 MXN      -0.088000
      3 C3           2.3160    -0.8670     0.6480 ca         1 MXN      -0.109000
      4 C4           2.8100    -0.0200    -0.3570 ca         1 MXN      -0.094000
      5 C5           1.9310     0.8260    -1.0530 ca         1 MXN      -0.109000
      6 C6           0.5590     0.8250    -0.7460 ca         1 MXN      -0.088000
      7 C7          -1.4400    -0.0400     0.6140 c3         1 MXN       0.293700
      8 C8          -2.2740    -0.3510    -0.5700 c1         1 MXN       0.261900
      9 N9          -2.9410    -0.5680    -1.5040 n1         1 MXN      -0.444000
     10 O10         -1.8020     1.2170     1.2150 oh         1 MXN      -0.630000
     11 H2           0.5790    -1.5320     1.7410 ha         1 MXN       0.117000
     12 H3           2.9960    -1.5220     1.1890 ha         1 MXN       0.118000
     13 H4           3.8710    -0.0180    -0.5960 ha         1 MXN       0.117000
     14 H5           2.3130     1.4820    -1.8320 ha         1 MXN       0.118000
     15 H6          -0.1060     1.4860    -1.2980 ha         1 MXN       0.117000
     16 H7          -1.6210    -0.8510     1.3330 h1         1 MXN       0.099700
     17 HO10        -1.5070     1.9160     0.5930 ho         1 MXN       0.455000
@<TRIPOS>BOND
     1     1     2 ar  
     2     1     6 ar  
     3     1     7 1   
     4     2     3 ar  
     5     2    11 1   
     6     3     4 ar  
     7     3    12 1   
     8     4     5 ar  
     9     4    13 1   
    10     5     6 ar  
    11     5    14 1   
    12     6    15 1   
    13     7     8 1   
    14     7    10 1   
    15     7    16 1   
    16     8     9 3   
    17    10    17 1   
@<TRIPOS>SUBSTRUCTURE
     1 MXN         1 TEMP              0 ****  ****    0 ROOT
