@<TRIPOS>MOLECULE
MXO
   48    50     1     0     0
SMALL
No Charge or Current Charge


@<TRIPOS>ATOM
      1 C13        -27.8490    20.5640   -19.7330 ca         1 MXO      -0.114000
      2 C17        -26.7550    25.3780   -25.1430 c6         1 MXO       0.203300
      3 C21        -24.6650    26.2840   -26.2440 ca         1 MXO       0.591900
      4 C22        -23.4530    26.0710   -26.9270 ca         1 MXO      -0.197000
      5 C24        -23.4850    28.4210   -27.5050 ca         1 MXO       0.297000
      6 C02        -27.4130    21.7140   -24.0310 c          1 MXO       0.610100
      7 C03        -26.6590    20.5330   -23.3840 c3         1 MXO      -0.109100
      8 C04        -26.6580    20.6640   -21.8630 ca         1 MXO      -0.070300
      9 C05        -25.4800    21.0010   -21.1700 ca         1 MXO      -0.078500
     10 C06        -25.4910    21.1230   -19.7690 ca         1 MXO      -0.114000
     11 C07        -26.6730    20.9130   -19.0380 ca         1 MXO       0.241000
     12 C11        -28.6340    22.8290   -17.1440 c3         1 MXO      -0.381100
     13 C14        -27.8410    20.4420   -21.1330 ca         1 MXO      -0.078500
     14 C16        -27.4700    24.0030   -25.0660 c6         1 MXO       0.080500
     15 C18        -25.2330    22.9340   -24.5590 c6         1 MXO       0.080500
     16 C19        -24.5890    24.3440   -24.6570 c6         1 MXO       0.203300
     17 C23        -22.8440    27.1670   -27.5740 ca         1 MXO      -0.038000
     18 C25        -22.9230    29.5840   -28.1420 cg         1 MXO       0.231000
     19 N08        -26.6250    21.0480   -17.6490 nu         1 MXO      -0.872100
     20 N15        -26.7210    22.9060   -24.3680 n          1 MXO      -0.422800
     21 N20        -25.3400    25.2350   -25.5780 nh         1 MXO      -0.777300
     22 N26        -22.4570    30.5220   -28.6630 n1         1 MXO      -0.435000
     23 N27        -24.6590    28.5690   -26.8400 nb         1 MXO      -0.227000
     24 N28        -25.2390    27.5140   -26.2200 nb         1 MXO      -0.411000
     25 O01        -28.6280    21.6480   -24.1740 o          1 MXO      -0.582100
     26 O10        -27.1610    21.6360   -15.3000 o          1 MXO      -0.525500
     27 O12        -28.7790    20.2200   -16.6570 o          1 MXO      -0.525500
     28 S09        -27.8450    21.3430   -16.5600 s6         1 MXO       1.189100
     29 H1         -28.7760    20.3790   -19.2020 ha         1 MXO       0.130500
     30 H2         -26.7970    25.8580   -24.1530 h1         1 MXO       0.067450
     31 H3         -23.0040    25.0850   -26.9710 ha         1 MXO       0.131000
     32 H4         -27.1730    19.6040   -23.6560 hc         1 MXO       0.065700
     33 H5         -25.6280    20.4760   -23.7410 hc         1 MXO       0.065700
     34 H6         -24.5520    21.1680   -21.7110 ha         1 MXO       0.118000
     35 H7         -24.5720    21.3840   -19.2520 ha         1 MXO       0.130500
     36 H8         -27.8730    23.6150   -17.1780 h1         1 MXO       0.104700
     37 H9         -29.0410    22.6250   -18.1380 h1         1 MXO       0.104700
     38 H10        -29.4290    23.0770   -16.4340 h1         1 MXO       0.104700
     39 H11        -28.7590    20.1730   -21.6520 ha         1 MXO       0.118000
     40 H12        -28.4430    24.1540   -24.5770 h1         1 MXO       0.065450
     41 H13        -24.9930    22.3780   -25.4770 h1         1 MXO       0.065450
     42 H14        -23.5420    24.2250   -24.9700 h1         1 MXO       0.067450
     43 H15        -21.9080    27.0490   -28.1140 ha         1 MXO       0.139000
     44 H16        -25.7800    21.4130   -17.2290 hn         1 MXO       0.486000
     45 H17        -27.3240    26.0140   -25.8380 h1         1 MXO       0.067450
     46 H18        -27.6780    23.6700   -26.0920 h1         1 MXO       0.065450
     47 H19        -24.7370    22.4190   -23.7270 h1         1 MXO       0.065450
     48 H20        -24.5690    24.7880   -23.6510 h1         1 MXO       0.067450
@<TRIPOS>BOND
     1     1    11 ar  
     2     1    13 ar  
     3     1    29 1   
     4     2    14 1   
     5     2    21 1   
     6     2    30 1   
     7     2    45 1   
     8     3     4 ar  
     9     3    21 1   
    10     3    24 ar  
    11     4    17 ar  
    12     4    31 1   
    13     5    17 ar  
    14     5    18 1   
    15     5    23 ar  
    16     6     7 1   
    17     6    20 1   
    18     6    25 2   
    19     7     8 1   
    20     7    32 1   
    21     7    33 1   
    22     8     9 ar  
    23     8    13 ar  
    24     9    10 ar  
    25     9    34 1   
    26    10    11 ar  
    27    10    35 1   
    28    11    19 1   
    29    12    28 1   
    30    12    36 1   
    31    12    37 1   
    32    12    38 1   
    33    13    39 1   
    34    14    20 1   
    35    14    40 1   
    36    14    46 1   
    37    15    16 1   
    38    15    20 1   
    39    15    41 1   
    40    15    47 1   
    41    16    21 1   
    42    16    42 1   
    43    16    48 1   
    44    17    43 1   
    45    18    22 3   
    46    19    28 1   
    47    19    44 1   
    48    23    24 ar  
    49    26    28 2   
    50    27    28 2   
@<TRIPOS>SUBSTRUCTURE
     1 MXO         1 TEMP              0 ****  ****    0 ROOT
