@<TRIPOS>MOLECULE
MXO
   48    50     1     0     0
SMALL
bcc


@<TRIPOS>ATOM
      1 C13        -27.3410    19.8240   -19.7430 ca         1 MXO      -0.132000
      2 C17        -25.8000    26.1050   -24.8590 c6         1 MXO       0.203300
      3 C21        -24.4700    26.1880   -26.9230 ca         1 MXO       0.657200
      4 C22        -23.4690    25.7100   -27.8040 ca         1 MXO      -0.280300
      5 C24        -24.0050    27.5660   -29.1650 ca         1 MXO       0.362300
      6 C02        -26.4900    23.3280   -22.7670 c          1 MXO       0.677100
      7 C03        -25.7100    22.1040   -22.3030 c3         1 MXO      -0.109100
      8 C04        -26.2040    21.5580   -20.9960 ca         1 MXO      -0.070300
      9 C05        -25.9250    22.2070   -19.7970 ca         1 MXO      -0.096500
     10 C06        -26.3610    21.6890   -18.5890 ca         1 MXO      -0.132000
     11 C07        -27.0690    20.4900   -18.5540 ca         1 MXO       0.102600
     12 C11        -29.6450    21.5240   -16.8050 c3         1 MXO      -0.270300
     13 C14        -26.9210    20.3680   -20.9480 ca         1 MXO      -0.096500
     14 C16        -26.8060    25.0260   -24.4940 c6         1 MXO       0.080500
     15 C18        -25.1270    23.3320   -24.8600 c6         1 MXO       0.080500
     16 C19        -24.1200    24.4110   -25.2350 c6         1 MXO       0.203300
     17 C23        -23.2380    26.4150   -28.9450 ca         1 MXO      -0.121300
     18 C25        -23.8330    28.3690   -30.3330 cg         1 MXO       0.141800
     19 N08        -27.4580    19.9310   -17.3100 nu         1 MXO      -0.678500
     20 N15        -26.1320    23.8590   -23.9590 n          1 MXO      -0.489800
     21 N20        -24.7970    25.5760   -25.7700 nh         1 MXO      -0.777300
     22 N26        -23.6820    29.0060   -31.2810 n1         1 MXO      -0.345800
     23 N27        -24.9260    27.9740   -28.3080 nb         1 MXO      -0.227000
     24 N28        -25.1540    27.3110   -27.2190 nb         1 MXO      -0.411000
     25 O01        -27.3850    23.8040   -22.0870 o          1 MXO      -0.582100
     26 O10        -29.0930    19.2740   -15.5550 o          1 MXO      -0.596300
     27 O12        -29.7680    19.1760   -17.9730 o          1 MXO      -0.596300
     28 S09        -29.0680    19.8440   -16.8900 s6         1 MXO       1.219900
     29 H1         -27.8590    18.8760   -19.7320 ha         1 MXO       0.148500
     30 H2         -25.3000    26.4650   -23.9530 h1         1 MXO       0.067450
     31 H3         -22.8950    24.8190   -27.6050 ha         1 MXO       0.149000
     32 H4         -25.7630    21.3240   -23.0670 hc         1 MXO       0.065700
     33 H5         -24.6530    22.3720   -22.2160 hc         1 MXO       0.065700
     34 H6         -25.3560    23.1290   -19.8000 ha         1 MXO       0.136000
     35 H7         -26.1440    22.2120   -17.6650 ha         1 MXO       0.148500
     36 H8         -29.0840    22.0540   -16.0380 h1         1 MXO       0.104700
     37 H9         -29.5090    22.0030   -17.7720 h1         1 MXO       0.104700
     38 H10        -30.7030    21.5030   -16.5490 h1         1 MXO       0.104700
     39 H11        -27.1380    19.8380   -21.8680 ha         1 MXO       0.136000
     40 H12        -27.5050    25.4180   -23.7590 h1         1 MXO       0.065450
     41 H13        -25.6140    22.9600   -25.7670 h1         1 MXO       0.065450
     42 H14        -23.4190    23.9880   -25.9480 h1         1 MXO       0.067450
     43 H15        -22.4880    26.1010   -29.6580 ha         1 MXO       0.157000
     44 H16        -26.8940    20.2410   -16.5230 hn         1 MXO       0.430800
     45 H17        -26.3140    26.9440   -25.3160 h1         1 MXO       0.067450
     46 H18        -27.3770    24.7410   -25.3840 h1         1 MXO       0.065450
     47 H19        -24.5860    22.5030   -24.4140 h1         1 MXO       0.065450
     48 H20        -23.5490    24.7040   -24.3490 h1         1 MXO       0.067450
@<TRIPOS>BOND
     1     1    11 ar  
     2     1    13 ar  
     3     1    29 1   
     4     2    14 1   
     5     2    21 1   
     6     2    30 1   
     7     2    45 1   
     8     3     4 ar  
     9     3    21 1   
    10     3    24 ar  
    11     4    17 ar  
    12     4    31 1   
    13     5    17 ar  
    14     5    18 1   
    15     5    23 ar  
    16     6     7 1   
    17     6    20 1   
    18     6    25 2   
    19     7     8 1   
    20     7    32 1   
    21     7    33 1   
    22     8     9 ar  
    23     8    13 ar  
    24     9    10 ar  
    25     9    34 1   
    26    10    11 ar  
    27    10    35 1   
    28    11    19 1   
    29    12    28 1   
    30    12    36 1   
    31    12    37 1   
    32    12    38 1   
    33    13    39 1   
    34    14    20 1   
    35    14    40 1   
    36    14    46 1   
    37    15    16 1   
    38    15    20 1   
    39    15    41 1   
    40    15    47 1   
    41    16    21 1   
    42    16    42 1   
    43    16    48 1   
    44    17    43 1   
    45    18    22 3   
    46    19    28 1   
    47    19    44 1   
    48    23    24 ar  
    49    26    28 2   
    50    27    28 2   
@<TRIPOS>SUBSTRUCTURE
     1 MXO         1 TEMP              0 ****  ****    0 ROOT
