@<TRIPOS>MOLECULE
MXP
   61    61     1     0     0
SMALL
No Charge or Current Charge


@<TRIPOS>ATOM
      1 O1           0.7520     0.8870    -1.2230 os         1 MXP      -0.339200
      2 C1           0.9220     3.1870    -0.5900 cc         1 MXP      -0.410000
      3 N1           7.7900    -1.0680     0.4000 ns         1 MXP      -0.412100
      4 C2          -0.3900     3.2050    -0.0740 cc         1 MXP       0.282100
      5 C3          -1.1280     2.0600    -0.1460 cd         1 MXP      -0.399400
      6 O2          -0.8470     4.3730     0.3990 oh         1 MXP      -0.488100
      7 C4          -0.5060     0.8320    -0.6700 c          1 MXP       0.695300
      8 C5           1.4590     2.0580    -1.1530 cd         1 MXP       0.212900
      9 C6          -2.5100     2.0010     0.3950 c          1 MXP       0.622500
     10 C7          -3.5980     1.2070    -0.3080 ce         1 MXP      -0.184400
     11 O3          -1.0610    -0.2520    -0.5900 o          1 MXP      -0.484000
     12 C8          -4.7350     0.8390     0.3660 cf         1 MXP      -0.106000
     13 C9          -5.8790     0.1150    -0.1940 cf         1 MXP      -0.206000
     14 C10         -7.0360    -0.1620     0.4560 c2         1 MXP      -0.076400
     15 C11         -8.1560    -0.9650    -0.1920 c3         1 MXP      -0.047200
     16 C12         -8.2050    -2.4260     0.3080 c3         1 MXP      -0.074400
     17 C13         -9.3150    -3.2610    -0.3680 c3         1 MXP      -0.076400
     18 C14         -9.3630    -4.7180     0.1310 c3         1 MXP      -0.089100
     19 C15         -3.4640     0.9730    -1.8160 c3         1 MXP      -0.041900
     20 C16         -7.3380     0.2490     1.8910 c3         1 MXP      -0.062900
     21 C17          2.8450     1.9750    -1.7360 c3         1 MXP      -0.049200
     22 C18          3.8620     1.3440    -0.7580 c3         1 MXP      -0.070400
     23 C19          5.2890     1.2560    -1.3360 c3         1 MXP      -0.019200
     24 C20          6.2610     0.6290    -0.3580 c2         1 MXP      -0.310200
     25 C21          6.8960    -0.5360    -0.5420 c2         1 MXP      -0.041400
     26 C22          8.4860    -2.2440     0.3090 c          1 MXP       0.642100
     27 C23         10.0580    -3.5850     1.5300 c3         1 MXP       0.170900
     28 O4          -2.7960     2.6130     1.4180 o          1 MXP      -0.522100
     29 O5           9.2450    -2.4000     1.4310 os         1 MXP      -0.455100
     30 O6           8.4290    -3.0230    -0.6310 o          1 MXP      -0.522000
     31 H1           1.5210     4.0920    -0.5560 ha         1 MXP       0.206000
     32 HN1          7.9590    -0.5480     1.2520 hn         1 MXP       0.330500
     33 HO2         -0.1130     5.0140     0.3210 ho         1 MXP       0.479000
     34 H8          -4.7920     1.0860     1.4280 ha         1 MXP       0.189000
     35 H9          -5.7760    -0.2460    -1.2190 ha         1 MXP       0.174000
     36 H11         -9.1260    -0.4840    -0.0120 hc         1 MXP       0.045200
     37 H11A        -8.0270    -0.9740    -1.2820 hc         1 MXP       0.045200
     38 H12         -7.2330    -2.9000     0.1230 hc         1 MXP       0.043200
     39 H12A        -8.3630    -2.4330     1.3940 hc         1 MXP       0.043200
     40 H13        -10.2880    -2.7890    -0.1850 hc         1 MXP       0.036200
     41 H13A        -9.1590    -3.2620    -1.4540 hc         1 MXP       0.036200
     42 H14         -8.4140    -5.2280    -0.0690 hc         1 MXP       0.032033
     43 H14A        -9.5530    -4.7510     1.2110 hc         1 MXP       0.032033
     44 H14B       -10.1630    -5.2690    -0.3760 hc         1 MXP       0.032033
     45 H15         -3.2690    -0.0820    -2.0450 hc         1 MXP       0.041700
     46 H15A        -4.3830     1.2550    -2.3430 hc         1 MXP       0.041700
     47 H15B        -2.6650     1.5720    -2.2680 hc         1 MXP       0.041700
     48 H16         -6.9790     1.2620     2.1050 hc         1 MXP       0.044700
     49 H16A        -8.4140     0.2460     2.1040 hc         1 MXP       0.044700
     50 H16B        -6.8600    -0.4360     2.6010 hc         1 MXP       0.044700
     51 H17          2.8200     1.3860    -2.6610 hc         1 MXP       0.068700
     52 H17A         3.1900     2.9770    -2.0210 hc         1 MXP       0.068700
     53 H18          3.8830     1.9340     0.1670 hc         1 MXP       0.056700
     54 H18A         3.5230     0.3370    -0.4860 hc         1 MXP       0.056700
     55 H19          5.2610     0.6780    -2.2690 hc         1 MXP       0.043700
     56 H19A         5.6340     2.2630    -1.6050 hc         1 MXP       0.043700
     57 H20          6.4260     1.2130     0.5500 ha         1 MXP       0.172000
     58 H21          6.7630    -1.1530    -1.4370 h4         1 MXP       0.213000
     59 H23          9.4370    -4.4900     1.4990 h1         1 MXP       0.051700
     60 H23A        10.7830    -3.6320     0.7070 h1         1 MXP       0.051700
     61 H23B        10.6150    -3.5880     2.4750 h1         1 MXP       0.051700
@<TRIPOS>BOND
     1     1     7 1   
     2     1     8 1   
     3     2     4 1   
     4     2     8 2   
     5     2    31 1   
     6     3    25 1   
     7     3    26 1   
     8     3    32 1   
     9     4     5 2   
    10     4     6 1   
    11     5     7 1   
    12     5     9 1   
    13     6    33 1   
    14     7    11 2   
    15     8    21 1   
    16     9    10 1   
    17     9    28 2   
    18    10    12 2   
    19    10    19 1   
    20    12    13 1   
    21    12    34 1   
    22    13    14 2   
    23    13    35 1   
    24    14    15 1   
    25    14    20 1   
    26    15    16 1   
    27    15    36 1   
    28    15    37 1   
    29    16    17 1   
    30    16    38 1   
    31    16    39 1   
    32    17    18 1   
    33    17    40 1   
    34    17    41 1   
    35    18    42 1   
    36    18    43 1   
    37    18    44 1   
    38    19    45 1   
    39    19    46 1   
    40    19    47 1   
    41    20    48 1   
    42    20    49 1   
    43    20    50 1   
    44    21    22 1   
    45    21    51 1   
    46    21    52 1   
    47    22    23 1   
    48    22    53 1   
    49    22    54 1   
    50    23    24 1   
    51    23    55 1   
    52    23    56 1   
    53    24    25 2   
    54    24    57 1   
    55    25    58 1   
    56    26    29 1   
    57    26    30 2   
    58    27    29 1   
    59    27    59 1   
    60    27    60 1   
    61    27    61 1   
@<TRIPOS>SUBSTRUCTURE
     1 MXP         1 TEMP              0 ****  ****    0 ROOT
