@<TRIPOS>MOLECULE
MXP
   61    61     1     0     0
SMALL
abcg2


@<TRIPOS>ATOM
      1 O1           0.7670     1.0690    -0.9400 os         1 MXP      -0.339200
      2 C1           0.8290     3.4030    -0.8880 cc         1 MXP      -0.410000
      3 N1           7.5140    -1.1210     0.4970 ns         1 MXP      -0.412100
      4 C2          -0.4970     3.4140    -0.3650 cc         1 MXP       0.282100
      5 C3          -1.1680     2.2320    -0.1630 cd         1 MXP      -0.399400
      6 O2          -1.1030     4.5580    -0.1080 oh         1 MXP      -0.488100
      7 C4          -0.5100     0.9940    -0.4340 c          1 MXP       0.695300
      8 C5           1.4090     2.2190    -1.1640 cd         1 MXP       0.212900
      9 C6          -2.5430     2.1930     0.4120 c          1 MXP       0.622500
     10 C7          -3.5780     1.4110    -0.3020 ce         1 MXP      -0.184400
     11 O3          -0.9460    -0.1180    -0.2510 o          1 MXP      -0.484000
     12 C8          -4.6570     1.0230     0.4120 cf         1 MXP      -0.106000
     13 C9          -5.7560     0.2500    -0.1050 cf         1 MXP      -0.206000
     14 C10         -6.8250    -0.1730     0.5990 c2         1 MXP      -0.076400
     15 C11         -7.8860    -0.9960    -0.0740 c3         1 MXP      -0.047200
     16 C12         -7.7730    -2.4870     0.2610 c3         1 MXP      -0.074400
     17 C13         -8.8580    -3.3210    -0.4100 c3         1 MXP      -0.076400
     18 C14         -8.7440    -4.8020    -0.0790 c3         1 MXP      -0.089100
     19 C15         -3.4110     1.0950    -1.7620 c3         1 MXP      -0.041900
     20 C16         -7.0560     0.1000     2.0520 c3         1 MXP      -0.062900
     21 C17          2.7790     2.0390    -1.7120 c3         1 MXP      -0.049200
     22 C18          3.7480     1.4080    -0.7060 c3         1 MXP      -0.070400
     23 C19          5.1150     1.1560    -1.3440 c3         1 MXP      -0.019200
     24 C20          6.1170     0.6360    -0.3640 c2         1 MXP      -0.310200
     25 C21          6.5880    -0.6090    -0.4030 c2         1 MXP      -0.041400
     26 C22          7.9640    -2.4000     0.4500 c          1 MXP       0.642100
     27 C23          9.4060    -3.9260     1.5020 c3         1 MXP       0.170900
     28 O4          -2.7820     2.8100     1.4350 o          1 MXP      -0.522100
     29 O5           8.8420    -2.6190     1.4260 os         1 MXP      -0.455100
     30 O6           7.6180    -3.2290    -0.3630 o          1 MXP      -0.522000
     31 H1           1.3630     4.3240    -1.0780 ha         1 MXP       0.206000
     32 HN1          7.8740    -0.5110     1.2160 hn         1 MXP       0.330500
     33 HO2         -0.5370     5.3110    -0.3150 ho         1 MXP       0.479000
     34 H8          -4.6890     1.3000     1.4600 ha         1 MXP       0.189000
     35 H9          -5.7210    -0.0180    -1.1570 ha         1 MXP       0.174000
     36 H11         -8.8740    -0.6370     0.2330 hc         1 MXP       0.045200
     37 H11A        -7.8250    -0.8710    -1.1580 hc         1 MXP       0.045200
     38 H12         -6.7890    -2.8490    -0.0510 hc         1 MXP       0.043200
     39 H12A        -7.8270    -2.6330     1.3440 hc         1 MXP       0.043200
     40 H13         -9.8410    -2.9510    -0.1010 hc         1 MXP       0.036200
     41 H13A        -8.8070    -3.1790    -1.4930 hc         1 MXP       0.036200
     42 H14         -7.7800    -5.2060    -0.3960 hc         1 MXP       0.032033
     43 H14A        -8.8340    -4.9730     0.9960 hc         1 MXP       0.032033
     44 H14B        -9.5240    -5.3840    -0.5710 hc         1 MXP       0.032033
     45 H15         -3.1740     0.0440    -1.9320 hc         1 MXP       0.041700
     46 H15A        -4.3250     1.3160    -2.3130 hc         1 MXP       0.041700
     47 H15B        -2.6190     1.6880    -2.2170 hc         1 MXP       0.041700
     48 H16         -7.9210     0.7560     2.1720 hc         1 MXP       0.044700
     49 H16A        -7.2950    -0.8230     2.5830 hc         1 MXP       0.044700
     50 H16B        -6.2130     0.5630     2.5580 hc         1 MXP       0.044700
     51 H17          2.7200     1.4120    -2.6070 hc         1 MXP       0.068700
     52 H17A         3.1570     3.0130    -2.0270 hc         1 MXP       0.068700
     53 H18          3.8530     2.0710     0.1570 hc         1 MXP       0.056700
     54 H18A         3.3480     0.4620    -0.3350 hc         1 MXP       0.056700
     55 H19          4.9990     0.4480    -2.1690 hc         1 MXP       0.043700
     56 H19A         5.4790     2.0900    -1.7840 hc         1 MXP       0.043700
     57 H20          6.4510     1.3160     0.4150 ha         1 MXP       0.172000
     58 H21          6.2640    -1.3060    -1.1650 h4         1 MXP       0.213000
     59 H23          8.6420    -4.6840     1.6710 h1         1 MXP       0.051700
     60 H23A         9.9670    -4.1740     0.6010 h1         1 MXP       0.051700
     61 H23B        10.0830    -3.9070     2.3510 h1         1 MXP       0.051700
@<TRIPOS>BOND
     1     1     7 1   
     2     1     8 1   
     3     2     4 1   
     4     2     8 2   
     5     2    31 1   
     6     3    25 1   
     7     3    26 1   
     8     3    32 1   
     9     4     5 2   
    10     4     6 1   
    11     5     7 1   
    12     5     9 1   
    13     6    33 1   
    14     7    11 2   
    15     8    21 1   
    16     9    10 1   
    17     9    28 2   
    18    10    12 2   
    19    10    19 1   
    20    12    13 1   
    21    12    34 1   
    22    13    14 2   
    23    13    35 1   
    24    14    15 1   
    25    14    20 1   
    26    15    16 1   
    27    15    36 1   
    28    15    37 1   
    29    16    17 1   
    30    16    38 1   
    31    16    39 1   
    32    17    18 1   
    33    17    40 1   
    34    17    41 1   
    35    18    42 1   
    36    18    43 1   
    37    18    44 1   
    38    19    45 1   
    39    19    46 1   
    40    19    47 1   
    41    20    48 1   
    42    20    49 1   
    43    20    50 1   
    44    21    22 1   
    45    21    51 1   
    46    21    52 1   
    47    22    23 1   
    48    22    53 1   
    49    22    54 1   
    50    23    24 1   
    51    23    55 1   
    52    23    56 1   
    53    24    25 2   
    54    24    57 1   
    55    25    58 1   
    56    26    29 1   
    57    26    30 2   
    58    27    29 1   
    59    27    59 1   
    60    27    60 1   
    61    27    61 1   
@<TRIPOS>SUBSTRUCTURE
     1 MXP         1 TEMP              0 ****  ****    0 ROOT
