@<TRIPOS>MOLECULE
MXQ
   38    40     1     0     0
SMALL
No Charge or Current Charge


@<TRIPOS>ATOM
      1 C2          -0.6560    -0.5990     0.3300 c          1 MXQ       0.550200
      2 N3           0.6860    -0.4140    -0.0720 n          1 MXQ      -0.244000
      3 C4           1.5130    -1.6500    -0.2590 c6         1 MXQ       0.100000
      4 C5           3.0030    -1.4200    -0.6340 c6         1 MXQ      -0.076700
      5 C6           3.9000    -1.2260     0.6240 c6         1 MXQ       0.161800
      6 C8           3.5500     1.2230     0.5010 c6         1 MXQ       0.165800
      7 C9           2.6480     1.0350    -0.7530 c6         1 MXQ      -0.034500
      8 C10          3.1170    -0.1940    -1.5610 c6         1 MXQ      -0.077400
      9 C11          1.1930     0.8720    -0.3310 cc         1 MXQ       0.102400
     10 C12          0.4050     1.9980    -0.2190 cd         1 MXQ      -0.315000
     11 C14         -1.4830     0.6360     0.4550 cc         1 MXQ      -0.220400
     12 C15         -2.9210     0.4350     0.8890 c3         1 MXQ      -0.011200
     13 C16         -3.8540     0.0610    -0.2840 c3         1 MXQ      -0.080400
     14 C17         -5.3210    -0.1250     0.1490 c3         1 MXQ       0.163600
     15 O1          -1.1040    -1.7200     0.5540 o          1 MXQ      -0.578000
     16 N7           3.5660     0.0140     1.3660 n7         1 MXQ      -0.862400
     17 C13         -0.9630     1.8840     0.1860 cd         1 MXQ      -0.080000
     18 O18         -6.1220    -0.4630    -0.9870 oh         1 MXQ      -0.662000
     19 HC4B         1.4580    -2.2680     0.6480 h1         1 MXQ       0.067700
     20 HC4A         1.0480    -2.2330    -1.0660 h1         1 MXQ       0.067700
     21 HC5          3.3630    -2.3100    -1.1670 hc         1 MXQ       0.062700
     22 HC6B         3.7980    -2.0930     1.2930 h1         1 MXQ       0.035700
     23 HC6A         4.9530    -1.1820     0.3070 h1         1 MXQ       0.035700
     24 HC8B         4.5760     1.4460     0.1740 h1         1 MXQ       0.037700
     25 HC8A         3.1980     2.0870     1.0850 h1         1 MXQ       0.037700
     26 HC9          2.7550     1.9240    -1.3900 hc         1 MXQ       0.069700
     27 H10B         4.1540    -0.0610    -1.8990 hc         1 MXQ       0.054700
     28 H10A         2.5000    -0.3250    -2.4610 hc         1 MXQ       0.054700
     29 HC12         0.8220     2.9790    -0.4290 ha         1 MXQ       0.191000
     30 H15B        -2.9860    -0.3360     1.6670 hc         1 MXQ       0.047700
     31 H15A        -3.2960     1.3550     1.3550 hc         1 MXQ       0.047700
     32 H16B        -3.8000     0.8450    -1.0490 hc         1 MXQ       0.057700
     33 H16A        -3.4970    -0.8660    -0.7500 hc         1 MXQ       0.057700
     34 H17B        -5.3780    -0.9200     0.9050 h1         1 MXQ       0.014200
     35 H17A        -5.6850     0.8040     0.6070 h1         1 MXQ       0.014200
     36 HN7          4.2460     0.1490     2.1260 hn         1 MXQ       0.421000
     37 HC13        -1.5840     2.7730     0.2790 ha         1 MXQ       0.182000
     38 HO18        -7.0440    -0.5730    -0.6630 ho         1 MXQ       0.439000
@<TRIPOS>BOND
     1     1     2 1   
     2     1    11 1   
     3     1    15 2   
     4     2     3 1   
     5     2     9 1   
     6     3     4 1   
     7     3    19 1   
     8     3    20 1   
     9     4     5 1   
    10     4     8 1   
    11     4    21 1   
    12     5    16 1   
    13     5    22 1   
    14     5    23 1   
    15     6     7 1   
    16     6    16 1   
    17     6    24 1   
    18     6    25 1   
    19     7     8 1   
    20     7     9 1   
    21     7    26 1   
    22     8    27 1   
    23     8    28 1   
    24     9    10 2   
    25    10    17 1   
    26    10    29 1   
    27    11    12 1   
    28    11    17 2   
    29    12    13 1   
    30    12    30 1   
    31    12    31 1   
    32    13    14 1   
    33    13    32 1   
    34    13    33 1   
    35    14    18 1   
    36    14    34 1   
    37    14    35 1   
    38    16    36 1   
    39    17    37 1   
    40    18    38 1   
@<TRIPOS>SUBSTRUCTURE
     1 MXQ         1 TEMP              0 ****  ****    0 ROOT
