@<TRIPOS>MOLECULE
MXQ
   38    40     1     0     0
SMALL
abcg2


@<TRIPOS>ATOM
      1 C2          -0.6350    -0.5640     0.3390 c          1 MXQ       0.550200
      2 N3           0.6850    -0.3570    -0.0610 n          1 MXQ      -0.244000
      3 C4           1.4630    -1.5930    -0.2470 c6         1 MXQ       0.100000
      4 C5           2.9290    -1.3920    -0.6070 c6         1 MXQ      -0.076700
      5 C6           3.8210    -1.1760     0.6120 c6         1 MXQ       0.161800
      6 C8           3.5450     1.1980     0.4390 c6         1 MXQ       0.165800
      7 C9           2.6230     1.0160    -0.7720 c6         1 MXQ      -0.034500
      8 C10          3.0560    -0.2130    -1.5590 c6         1 MXQ      -0.077400
      9 C11          1.1980     0.8790    -0.3180 cc         1 MXQ       0.102400
     10 C12          0.4140     1.9830    -0.1570 cd         1 MXQ      -0.315000
     11 C14         -1.4510     0.6100     0.5160 cc         1 MXQ      -0.220400
     12 C15         -2.8860     0.4210     0.9050 c3         1 MXQ      -0.011200
     13 C16         -3.7650     0.0400    -0.2880 c3         1 MXQ      -0.080400
     14 C17         -5.2130    -0.1500     0.1210 c3         1 MXQ       0.163600
     15 O1          -1.0410    -1.7130     0.5220 o          1 MXQ      -0.578000
     16 N7           3.4410     0.0410     1.3010 n7         1 MXQ      -0.862400
     17 C13         -0.9160     1.8380     0.2730 cd         1 MXQ      -0.080000
     18 O18         -5.9770    -0.4680    -1.0230 oh         1 MXQ      -0.662000
     19 HC4B         1.3780    -2.1880     0.6630 h1         1 MXQ       0.067700
     20 HC4A         0.9770    -2.1630    -1.0410 h1         1 MXQ       0.067700
     21 HC5          3.2550    -2.3140    -1.0950 hc         1 MXQ       0.062700
     22 HC6B         3.7140    -2.0190     1.2990 h1         1 MXQ       0.035700
     23 HC6A         4.8690    -1.1670     0.2720 h1         1 MXQ       0.035700
     24 HC8B         4.5660     1.3710     0.0610 h1         1 MXQ       0.037700
     25 HC8A         3.2540     2.0900     0.9970 h1         1 MXQ       0.037700
     26 HC9          2.6880     1.9130    -1.3900 hc         1 MXQ       0.069700
     27 H10B         4.0870    -0.0950    -1.9020 hc         1 MXQ       0.054700
     28 H10A         2.4350    -0.3520    -2.4480 hc         1 MXQ       0.054700
     29 HC12         0.8280     2.9590    -0.3670 ha         1 MXQ       0.191000
     30 H15B        -2.9700    -0.3440     1.6810 hc         1 MXQ       0.047700
     31 H15A        -3.2590     1.3510     1.3420 hc         1 MXQ       0.047700
     32 H16B        -3.7010     0.8250    -1.0470 hc         1 MXQ       0.057700
     33 H16A        -3.3900    -0.8800    -0.7430 hc         1 MXQ       0.057700
     34 H17B        -5.2750    -0.9440     0.8770 h1         1 MXQ       0.014200
     35 H17A        -5.5770     0.7690     0.5990 h1         1 MXQ       0.014200
     36 HN7          4.0150     0.1690     2.1240 hn         1 MXQ       0.421000
     37 HC13        -1.5300     2.7230     0.4010 ha         1 MXQ       0.182000
     38 HO18        -6.8950    -0.5620    -0.7530 ho         1 MXQ       0.439000
@<TRIPOS>BOND
     1     1     2 1   
     2     1    11 1   
     3     1    15 2   
     4     2     3 1   
     5     2     9 1   
     6     3     4 1   
     7     3    19 1   
     8     3    20 1   
     9     4     5 1   
    10     4     8 1   
    11     4    21 1   
    12     5    16 1   
    13     5    22 1   
    14     5    23 1   
    15     6     7 1   
    16     6    16 1   
    17     6    24 1   
    18     6    25 1   
    19     7     8 1   
    20     7     9 1   
    21     7    26 1   
    22     8    27 1   
    23     8    28 1   
    24     9    10 2   
    25    10    17 1   
    26    10    29 1   
    27    11    12 1   
    28    11    17 2   
    29    12    13 1   
    30    12    30 1   
    31    12    31 1   
    32    13    14 1   
    33    13    32 1   
    34    13    33 1   
    35    14    18 1   
    36    14    34 1   
    37    14    35 1   
    38    16    36 1   
    39    17    37 1   
    40    18    38 1   
@<TRIPOS>SUBSTRUCTURE
     1 MXQ         1 TEMP              0 ****  ****    0 ROOT
