@<TRIPOS>MOLECULE
MXR
   52    53     1     0     0
SMALL
No Charge or Current Charge


@<TRIPOS>ATOM
      1 C1           5.0010     0.8060    -0.1190 c          1 MXR       0.590900
      2 C2           0.8620     0.3000     1.3630 c5         1 MXR       0.020000
      3 C3           4.2820    -0.5520    -0.1980 c3         1 MXR      -0.191700
      4 C4           2.7580    -0.4240     0.1160 c5         1 MXR       0.089500
      5 C5           1.0930     1.0660     0.0500 ce         1 MXR       0.347300
      6 O6           5.9320     1.0330     0.6490 o          1 MXR      -0.560100
      7 C7           4.5520    -1.1970    -1.5880 c3         1 MXR       0.173300
      8 O8           4.0650    -2.5430    -1.5840 oh         1 MXR      -0.647000
      9 C9           6.0460    -1.2490    -1.9790 c3         1 MXR      -0.131100
     10 N10          2.1350     0.6860    -0.6460 n2         1 MXR      -0.566900
     11 C11          0.3860     2.4310    -0.0700 c          1 MXR       0.636700
     12 O12         -0.4430     2.7610     0.7730 o          1 MXR      -0.696500
     13 O13          0.6650     3.1670    -1.0130 o          1 MXR      -0.696500
     14 S14         -0.2000    -1.2320     1.0760 ss         1 MXR      -0.477000
     15 C15         -1.8090    -0.2900     0.9330 c5         1 MXR       0.053300
     16 C16         -2.9190    -1.2960     0.5550 c5         1 MXR      -0.086400
     17 C17         -4.2110    -0.5420     1.0230 c5         1 MXR       0.078500
     18 C18          2.3200    -0.1790     1.6050 c5         1 MXR      -0.080700
     19 N19         -3.7550     0.4280     2.0920 n7         1 MXR      -0.842400
     20 C20          3.1410     0.8490     2.4250 c3         1 MXR      -0.086100
     21 C21         -2.3200     0.1230     2.3340 c5         1 MXR       0.148800
     22 C22         -4.8990     0.1630    -0.2210 c          1 MXR       0.597100
     23 N23         -5.5060    -0.7400    -1.1380 n          1 MXR      -0.411800
     24 O24         -4.8800     1.3730    -0.4270 o          1 MXR      -0.595100
     25 C25         -6.0570    -0.2210    -2.4090 c3         1 MXR       0.088300
     26 C26         -5.8920    -2.1230    -0.7620 c3         1 MXR       0.088300
     27 H1           4.6430     1.5880    -0.8250 h4         1 MXR       0.025200
     28 H3           0.4750     0.9120     2.1880 h1         1 MXR       0.098700
     29 H4           4.7380    -1.2010     0.5600 hc         1 MXR       0.049700
     30 H5           2.2890    -1.3630    -0.2140 h1         1 MXR       0.077700
     31 H8           4.0220    -0.6090    -2.3540 h1         1 MXR       0.106700
     32 H9           4.6200    -3.0450    -0.9490 ho         1 MXR       0.425000
     33 H10          6.6400    -1.7520    -1.2050 hc         1 MXR       0.038033
     34 H11          6.1780    -1.7960    -2.9210 hc         1 MXR       0.038033
     35 H12          6.4540    -0.2420    -2.1270 hc         1 MXR       0.038033
     36 H16         -1.7550     0.5520     0.2300 h1         1 MXR       0.121700
     37 H17         -2.9100    -1.5410    -0.5130 hc         1 MXR       0.053200
     38 H18         -2.8090    -2.2400     1.1030 hc         1 MXR       0.053200
     39 H19         -4.9280    -1.2500     1.4590 h1         1 MXR       0.062700
     40 H20          2.3460    -1.1120     2.1810 hc         1 MXR       0.055700
     41 H21         -3.8180     1.3750     1.6870 hn         1 MXR       0.444000
     42 H23          2.6670     1.0360     3.3960 hc         1 MXR       0.035033
     43 H24          4.1510     0.4770     2.6290 hc         1 MXR       0.035033
     44 H25          3.2240     1.8130     1.9090 hc         1 MXR       0.035033
     45 H26         -2.2160    -0.7080     3.0470 h1         1 MXR       0.069200
     46 H27         -1.7800     0.9880     2.7450 h1         1 MXR       0.069200
     47 H28         -5.3540     0.4910    -2.8600 h1         1 MXR       0.037533
     48 H29         -6.2220    -1.0410    -3.1190 h1         1 MXR       0.037533
     49 H30         -7.0120     0.2860    -2.2170 h1         1 MXR       0.037533
     50 H31         -6.5020    -2.1060     0.1500 h1         1 MXR       0.037533
     51 H32         -6.4850    -2.5870    -1.5620 h1         1 MXR       0.037533
     52 H33         -4.9990    -2.7360    -0.5950 h1         1 MXR       0.037533
@<TRIPOS>BOND
     1     1     3 1   
     2     1     6 2   
     3     1    27 1   
     4     2     5 1   
     5     2    14 1   
     6     2    18 1   
     7     2    28 1   
     8     3     4 1   
     9     3     7 1   
    10     3    29 1   
    11     4    10 1   
    12     4    18 1   
    13     4    30 1   
    14     5    10 2   
    15     5    11 1   
    16     7     8 1   
    17     7     9 1   
    18     7    31 1   
    19     8    32 1   
    20     9    33 1   
    21     9    34 1   
    22     9    35 1   
    23    11    12 1   
    24    11    13 1   
    25    14    15 1   
    26    15    16 1   
    27    15    21 1   
    28    15    36 1   
    29    16    17 1   
    30    16    37 1   
    31    16    38 1   
    32    17    19 1   
    33    17    22 1   
    34    17    39 1   
    35    18    20 1   
    36    18    40 1   
    37    19    21 1   
    38    19    41 1   
    39    20    42 1   
    40    20    43 1   
    41    20    44 1   
    42    21    45 1   
    43    21    46 1   
    44    22    23 1   
    45    22    24 2   
    46    23    25 1   
    47    23    26 1   
    48    25    47 1   
    49    25    48 1   
    50    25    49 1   
    51    26    50 1   
    52    26    51 1   
    53    26    52 1   
@<TRIPOS>SUBSTRUCTURE
     1 MXR         1 TEMP              0 ****  ****    0 ROOT
