@<TRIPOS>MOLECULE
MXR
   52    53     1     0     0
SMALL
bcc


@<TRIPOS>ATOM
      1 C1           5.1450     0.7470     0.3710 c          1 MXR       0.590900
      2 C2           0.9760     0.2280     1.1250 c5         1 MXR      -0.027900
      3 C3           4.4950    -0.5540    -0.0130 c3         1 MXR      -0.191700
      4 C4           2.9640    -0.4780     0.0580 c5         1 MXR       0.089500
      5 C5           1.3820     1.0810    -0.0500 ce         1 MXR       0.347300
      6 O6           6.0860     0.8520     1.1200 o          1 MXR      -0.560100
      7 C7           4.9480    -0.9250    -1.4540 c3         1 MXR       0.150100
      8 O8           4.3590    -2.1390    -1.8620 oh         1 MXR      -0.584800
      9 C9           6.4620    -0.9800    -1.5980 c3         1 MXR      -0.131100
     10 N10          2.4450     0.6980    -0.6290 n2         1 MXR      -0.566900
     11 C11          0.6080     2.3160    -0.4940 c          1 MXR       0.847300
     12 O12         -0.2090     2.7490     0.3410 o          1 MXR      -0.801800
     13 O13          0.8770     2.7780    -1.6130 o          1 MXR      -0.801800
     14 S14         -0.2490    -1.0330     0.6040 ss         1 MXR      -0.381200
     15 C15         -1.8090    -0.1200     0.5440 c5         1 MXR       0.005400
     16 C16         -2.9470    -1.0670     0.1640 c5         1 MXR      -0.086400
     17 C17         -4.1970    -0.4150     0.8360 c5         1 MXR       0.078500
     18 C18          2.2970    -0.4830     1.4500 c5         1 MXR      -0.080700
     19 N19         -3.7160     0.6700     1.6840 n7         1 MXR      -0.787200
     20 C20          3.0470     0.2780     2.5360 c3         1 MXR      -0.086100
     21 C21         -2.2930     0.4440     1.8770 c5         1 MXR       0.148800
     22 C22         -5.1760     0.1160    -0.2070 c          1 MXR       0.664100
     23 N23         -5.9750    -0.7800    -0.8120 n          1 MXR      -0.478800
     24 O24         -5.1950     1.3120    -0.4780 o          1 MXR      -0.595100
     25 C25         -6.9700    -0.3540    -1.7740 c3         1 MXR       0.088300
     26 C26         -5.9980    -2.1980    -0.5090 c3         1 MXR       0.088300
     27 H1           4.7190     1.6380    -0.1230 h4         1 MXR       0.025200
     28 H3           0.5660     0.7890     1.9630 h1         1 MXR       0.098700
     29 H4           4.8580    -1.3330     0.6680 hc         1 MXR       0.049700
     30 H5           2.5940    -1.3540    -0.4870 h1         1 MXR       0.077700
     31 H8           4.5520    -0.1670    -2.1350 h1         1 MXR       0.106700
     32 H9           4.7280    -2.8490    -1.3250 ho         1 MXR       0.386000
     33 H10          6.9030    -1.6800    -0.8830 hc         1 MXR       0.038033
     34 H11          6.7260    -1.3070    -2.6030 hc         1 MXR       0.038033
     35 H12          6.9260    -0.0070    -1.4410 hc         1 MXR       0.038033
     36 H16         -1.7350     0.6880    -0.1850 h1         1 MXR       0.121700
     37 H17         -3.0460    -1.1810    -0.9160 hc         1 MXR       0.053200
     38 H18         -2.7800    -2.0620     0.5830 hc         1 MXR       0.053200
     39 H19         -4.6960    -1.1610     1.4590 h1         1 MXR       0.062700
     40 H20          2.1390    -1.5080     1.7950 hc         1 MXR       0.055700
     41 H21         -3.8480     1.5420     1.1850 hn         1 MXR       0.388800
     42 H23          2.4560     0.2970     3.4520 hc         1 MXR       0.035033
     43 H24          3.9990    -0.1960     2.7760 hc         1 MXR       0.035033
     44 H25          3.2410     1.3160     2.2580 hc         1 MXR       0.035033
     45 H26         -2.1290    -0.2930     2.6690 h1         1 MXR       0.069200
     46 H27         -1.7900     1.3670     2.1570 h1         1 MXR       0.069200
     47 H28         -6.7480    -0.7600    -2.7630 h1         1 MXR       0.037533
     48 H29         -7.9560    -0.7120    -1.4730 h1         1 MXR       0.037533
     49 H30         -7.0000     0.7280    -1.8410 h1         1 MXR       0.037533
     50 H31         -6.7610    -2.4380     0.2340 h1         1 MXR       0.037533
     51 H32         -6.2300    -2.7470    -1.4210 h1         1 MXR       0.037533
     52 H33         -5.0400    -2.5640    -0.1560 h1         1 MXR       0.037533
@<TRIPOS>BOND
     1     1     3 1   
     2     1     6 2   
     3     1    27 1   
     4     2     5 1   
     5     2    14 1   
     6     2    18 1   
     7     2    28 1   
     8     3     4 1   
     9     3     7 1   
    10     3    29 1   
    11     4    10 1   
    12     4    18 1   
    13     4    30 1   
    14     5    10 2   
    15     5    11 1   
    16     7     8 1   
    17     7     9 1   
    18     7    31 1   
    19     8    32 1   
    20     9    33 1   
    21     9    34 1   
    22     9    35 1   
    23    11    12 1   
    24    11    13 1   
    25    14    15 1   
    26    15    16 1   
    27    15    21 1   
    28    15    36 1   
    29    16    17 1   
    30    16    37 1   
    31    16    38 1   
    32    17    19 1   
    33    17    22 1   
    34    17    39 1   
    35    18    20 1   
    36    18    40 1   
    37    19    21 1   
    38    19    41 1   
    39    20    42 1   
    40    20    43 1   
    41    20    44 1   
    42    21    45 1   
    43    21    46 1   
    44    22    23 1   
    45    22    24 2   
    46    23    25 1   
    47    23    26 1   
    48    25    47 1   
    49    25    48 1   
    50    25    49 1   
    51    26    50 1   
    52    26    51 1   
    53    26    52 1   
@<TRIPOS>SUBSTRUCTURE
     1 MXR         1 TEMP              0 ****  ****    0 ROOT
