@<TRIPOS>MOLECULE
MXS
   45    46     1     0     0
SMALL
No Charge or Current Charge


@<TRIPOS>ATOM
      1 C1          -3.7140    -0.3870     0.0010 cc         1 MXS       0.060600
      2 C2          -3.1430    -1.4290     0.7070 cd         1 MXS      -0.133000
      3 C3          -1.7520    -1.6210     0.4940 cd         1 MXS      -0.131000
      4 C4          -0.9140    -2.5410     1.0600 cc         1 MXS      -0.192000
      5 C5           0.4020    -2.3150     0.5330 cc         1 MXS      -0.261200
      6 C6           0.3650    -1.2480    -0.3430 cd         1 MXS       0.146900
      7 C7          -1.5050     0.2200    -1.0590 cd         1 MXS      -0.065000
      8 C8          -2.8720     0.4250    -0.8670 cc         1 MXS      -0.172000
      9 C9           1.5920    -3.1340     0.8550 c          1 MXS       0.608100
     10 C10          2.7250    -0.2320    -0.5200 c3         1 MXS       0.066500
     11 C11          3.9190    -0.6650    -1.4610 c          1 MXS       0.710000
     12 C12          2.7680     1.2950    -0.1410 c3         1 MXS       0.036300
     13 C13          2.5060     2.2120    -1.3760 c3         1 MXS      -0.065600
     14 C14          1.7190     1.5970     0.9760 c3         1 MXS      -0.065600
     15 C15         -5.9390     0.7380    -0.3530 c          1 MXS       0.640100
     16 C16         -8.2550     1.3670    -0.2620 c3         1 MXS       0.173900
     17 N1          -0.9840    -0.8760    -0.3650 na         1 MXS       0.138100
     18 N2           1.3830    -0.6540    -1.0600 nu         1 MXS      -0.805200
     19 O6          -7.1790     0.5140     0.1700 os         1 MXS      -0.464100
     20 O1           1.5790    -4.0670     1.6550 o          1 MXS      -0.563100
     21 O2           3.8580    -0.4000    -2.6550 o          1 MXS      -0.712500
     22 O3           4.8110    -1.3510    -0.9810 o          1 MXS      -0.712500
     23 O4           4.6400     0.9000     1.8480 o          1 MXS      -0.534000
     24 O5           4.2210     3.2650     0.8310 oh         1 MXS      -0.667800
     25 N3          -5.0780    -0.1820     0.1930 ns         1 MXS      -0.397100
     26 O7          -5.6670     1.6090    -1.1650 o          1 MXS      -0.522000
     27 S1           4.5080     1.6210     0.5260 s4         1 MXS       0.563500
     28 H2          -3.7120    -2.0570     1.3850 ha         1 MXS       0.116000
     29 H4          -1.1830    -3.3150     1.7780 ha         1 MXS       0.206000
     30 H7          -0.8500     0.8140    -1.6820 h4         1 MXS       0.166000
     31 H8          -3.3180     1.2540    -1.4010 ha         1 MXS       0.142000
     32 H9           2.5260    -2.8730     0.3130 h4         1 MXS       0.021200
     33 H10          2.8980    -0.7680     0.4210 h1         1 MXS       0.061700
     34 H13          1.5740     1.9390    -1.8830 hc         1 MXS       0.033700
     35 H13A         2.4070     3.2640    -1.0820 hc         1 MXS       0.033700
     36 H13B         3.3220     2.1450    -2.1040 hc         1 MXS       0.033700
     37 H14          1.8680     0.9430     1.8430 hc         1 MXS       0.033700
     38 H14A         1.7750     2.6350     1.3200 hc         1 MXS       0.033700
     39 H14B         0.6980     1.4390     0.6100 hc         1 MXS       0.033700
     40 H16         -8.0470     2.4160    -0.0140 h1         1 MXS       0.045700
     41 H16A        -8.4060     1.2880    -1.3460 h1         1 MXS       0.045700
     42 H16B        -9.1920     1.0800     0.2330 h1         1 MXS       0.045700
     43 HN2          1.1140    -0.2490    -1.9610 hn         1 MXS       0.493000
     44 HO5          4.1600     3.6780    -0.0530 ho         1 MXS       0.448000
     45 HN3         -5.5510    -0.8020     0.8370 hn         1 MXS       0.326500
@<TRIPOS>BOND
     1     1     2 2   
     2     1     8 1   
     3     1    25 1   
     4     2     3 1   
     5     2    28 1   
     6     3     4 2   
     7     3    17 1   
     8     4     5 1   
     9     4    29 1   
    10     5     6 2   
    11     5     9 1   
    12     6    17 1   
    13     6    18 1   
    14     7     8 2   
    15     7    17 1   
    16     7    30 1   
    17     8    31 1   
    18     9    20 2   
    19     9    32 1   
    20    10    11 1   
    21    10    12 1   
    22    10    18 1   
    23    10    33 1   
    24    11    21 1   
    25    11    22 1   
    26    12    13 1   
    27    12    14 1   
    28    12    27 1   
    29    13    34 1   
    30    13    35 1   
    31    13    36 1   
    32    14    37 1   
    33    14    38 1   
    34    14    39 1   
    35    15    19 1   
    36    15    25 1   
    37    15    26 2   
    38    16    19 1   
    39    16    40 1   
    40    16    41 1   
    41    16    42 1   
    42    18    43 1   
    43    23    27 2   
    44    24    27 1   
    45    24    44 1   
    46    25    45 1   
@<TRIPOS>SUBSTRUCTURE
     1 MXS         1 TEMP              0 ****  ****    0 ROOT
