@<TRIPOS>MOLECULE
MXS
   45    46     1     0     0
SMALL
bcc


@<TRIPOS>ATOM
      1 C1          -3.6110    -0.5370    -0.0880 cc         1 MXS       0.060600
      2 C2          -3.0410    -1.5590     0.6100 cd         1 MXS      -0.151000
      3 C3          -1.6550    -1.8200     0.4940 cd         1 MXS      -0.080300
      4 C4          -0.8060    -2.7570     1.0370 cc         1 MXS      -0.142000
      5 C5           0.4840    -2.4940     0.5140 cc         1 MXS      -0.261200
      6 C6           0.4130    -1.3840    -0.3230 cd         1 MXS       0.146900
      7 C7          -1.4700     0.0230    -1.0520 cd         1 MXS      -0.032300
      8 C8          -2.7920     0.2670    -0.9500 cc         1 MXS      -0.190000
      9 C9           1.6820    -3.2760     0.7350 c          1 MXS       0.608100
     10 C10          2.5490    -0.1670    -0.4300 c3         1 MXS       0.066500
     11 C11          3.7950    -0.5850    -1.2460 c          1 MXS       0.920600
     12 C12          2.4580     1.3680    -0.2410 c3         1 MXS       0.036300
     13 C13          2.3090     2.0970    -1.5680 c3         1 MXS      -0.065600
     14 C14          1.3210     1.7000     0.7160 c3         1 MXS      -0.065600
     15 C15         -5.6440     0.8420    -0.1110 c          1 MXS       0.756100
     16 C16         -7.7880     1.8020    -0.0450 c3         1 MXS       0.150700
     17 N1          -0.8960    -0.9910    -0.3340 na         1 MXS       0.036700
     18 N2           1.3520    -0.6930    -1.0720 nu         1 MXS      -0.750000
     19 O6          -6.9530     0.6500     0.0310 os         1 MXS      -0.440900
     20 O1           1.7490    -4.2280     1.4870 o          1 MXS      -0.563100
     21 O2           3.6350    -1.3900    -2.1790 o          1 MXS      -0.817800
     22 O3           4.8670    -0.0740    -0.8680 o          1 MXS      -0.817800
     23 O4           4.1590     1.2150     1.8180 o          1 MXS      -0.507200
     24 O5           3.4990     3.4590     0.9250 oh         1 MXS      -0.628800
     25 N3          -4.9930    -0.3480    -0.0180 ns         1 MXS      -0.464100
     26 O7          -5.1260     1.9180    -0.3020 o          1 MXS      -0.571000
     27 S1           4.0580     1.9390     0.5200 s4         1 MXS       0.536700
     28 H2          -3.6310    -2.1930     1.2600 ha         1 MXS       0.134000
     29 H4          -1.0850    -3.5480     1.7140 ha         1 MXS       0.156000
     30 H7          -0.8090     0.5780    -1.6990 h4         1 MXS       0.184000
     31 H8          -3.2140     1.0610    -1.5440 ha         1 MXS       0.160000
     32 H9           2.5620    -2.9710     0.1420 h4         1 MXS       0.021200
     33 H10          2.6680    -0.5960     0.5720 h1         1 MXS       0.061700
     34 H13          1.4370     1.7090    -2.0960 hc         1 MXS       0.033700
     35 H13A         2.1560     3.1660    -1.4200 hc         1 MXS       0.033700
     36 H13B         3.1780     1.9660    -2.2160 hc         1 MXS       0.033700
     37 H14          1.4740     1.2420     1.6940 hc         1 MXS       0.033700
     38 H14A         1.1950     2.7720     0.8480 hc         1 MXS       0.033700
     39 H14B         0.3820     1.3230     0.3160 hc         1 MXS       0.033700
     40 H16         -7.5800     2.5040     0.7620 h1         1 MXS       0.045700
     41 H16A        -7.6820     2.3130    -1.0020 h1         1 MXS       0.045700
     42 H16B        -8.8050     1.4360     0.0540 h1         1 MXS       0.045700
     43 HN2          1.6460    -1.1980    -1.9050 hn         1 MXS       0.437800
     44 HO5          4.1680     4.0960     0.6420 ho         1 MXS       0.409000
     45 HN3         -5.5390    -1.1460     0.2740 hn         1 MXS       0.326500
@<TRIPOS>BOND
     1     1     2 2   
     2     1     8 1   
     3     1    25 1   
     4     2     3 1   
     5     2    28 1   
     6     3     4 2   
     7     3    17 1   
     8     4     5 1   
     9     4    29 1   
    10     5     6 2   
    11     5     9 1   
    12     6    17 1   
    13     6    18 1   
    14     7     8 2   
    15     7    17 1   
    16     7    30 1   
    17     8    31 1   
    18     9    20 2   
    19     9    32 1   
    20    10    11 1   
    21    10    12 1   
    22    10    18 1   
    23    10    33 1   
    24    11    21 1   
    25    11    22 1   
    26    12    13 1   
    27    12    14 1   
    28    12    27 1   
    29    13    34 1   
    30    13    35 1   
    31    13    36 1   
    32    14    37 1   
    33    14    38 1   
    34    14    39 1   
    35    15    19 1   
    36    15    25 1   
    37    15    26 2   
    38    16    19 1   
    39    16    40 1   
    40    16    41 1   
    41    16    42 1   
    42    18    43 1   
    43    23    27 2   
    44    24    27 1   
    45    24    44 1   
    46    25    45 1   
@<TRIPOS>SUBSTRUCTURE
     1 MXS         1 TEMP              0 ****  ****    0 ROOT
