@<TRIPOS>MOLECULE
MXT
   40    41     1     0     0
SMALL
No Charge or Current Charge


@<TRIPOS>ATOM
      1 N1          -1.8710    -0.0310    -0.0370 n          1 MXT      -0.384400
      2 N2           2.5790    -0.2150    -0.0240 n3         1 MXT      -0.468100
      3 O2           2.6870    -1.5320    -0.6980 oh         1 MXT      -0.475300
      4 O11         -2.6620     1.7970     1.1680 o          1 MXT      -0.503000
      5 O12         -1.7560    -2.0180    -1.2560 o          1 MXT      -0.503000
      6 C14         -2.8300     0.6950     0.6670 c          1 MXT       0.566500
      7 C21         -0.4180     0.2560     0.1200 c6         1 MXT       0.119700
      8 C22          0.3340     0.4000    -1.2370 c6         1 MXT      -0.106400
      9 C23          0.2640    -0.7650     1.0710 c6         1 MXT      -0.106400
     10 C24          1.8710     0.7660    -1.0430 c6         1 MXT       0.181700
     11 C25          1.9820     2.3060    -0.6500 c3         1 MXT      -0.085350
     12 C26          2.5380     0.7410    -2.4920 c3         1 MXT      -0.085350
     13 C27          1.7990    -0.4200     1.3130 c6         1 MXT       0.181700
     14 C28          1.8920     0.7990     2.3360 c3         1 MXT      -0.085350
     15 C29          2.4410    -1.6010     2.1250 c3         1 MXT      -0.085350
     16 C11         -3.8720    -0.7370    -0.9480 c5         1 MXT      -0.170400
     17 C12         -4.1340    -0.0790     0.4340 c5         1 MXT      -0.170400
     18 C13         -2.3670    -1.0310    -0.8760 c          1 MXT       0.566500
     19 H21         -0.3450     1.2350     0.6100 h1         1 MXT       0.075700
     20 H121        -4.1920    -0.8710     1.1910 hc         1 MXT       0.085700
     21 H122        -5.0150     0.5670     0.5080 hc         1 MXT       0.085700
     22 H221         0.2690    -0.5390    -1.7990 hc         1 MXT       0.062950
     23 H222        -0.1620     1.1610    -1.8560 hc         1 MXT       0.062950
     24 H231        -0.2710    -0.7990     2.0300 hc         1 MXT       0.062950
     25 H232         0.1820    -1.7710     0.6390 hc         1 MXT       0.062950
     26 H251         3.0080     2.5640    -0.3660 hc         1 MXT       0.041033
     27 H252         1.7010     2.9610    -1.4840 hc         1 MXT       0.041033
     28 H253         1.3270     2.5930     0.1740 hc         1 MXT       0.041033
     29 H261         2.4670    -0.2480    -2.9580 hc         1 MXT       0.041033
     30 H262         2.0530     1.4440    -3.1800 hc         1 MXT       0.041033
     31 H263         3.6010     1.0050    -2.4420 hc         1 MXT       0.041033
     32 H281         1.2600     1.6450     2.0610 hc         1 MXT       0.041033
     33 H282         1.5670     0.5110     3.3430 hc         1 MXT       0.041033
     34 H283         2.9220     1.1660     2.4190 hc         1 MXT       0.041033
     35 H291         3.5090    -1.4280     2.3030 hc         1 MXT       0.041033
     36 H292         1.9620    -1.7330     3.1030 hc         1 MXT       0.041033
     37 H293         2.3420    -2.5650     1.6110 hc         1 MXT       0.041033
     38 H111        -4.4570    -1.6340    -1.1770 hc         1 MXT       0.085700
     39 H112        -4.0290     0.0200    -1.7250 hc         1 MXT       0.085700
     40 HO21         3.6560    -1.7030    -0.7530 ho         1 MXT       0.449000
@<TRIPOS>BOND
     1     1     6 1   
     2     1     7 1   
     3     1    18 1   
     4     2     3 1   
     5     2    10 1   
     6     2    13 1   
     7     3    40 1   
     8     4     6 2   
     9     5    18 2   
    10     6    17 1   
    11     7     8 1   
    12     7     9 1   
    13     7    19 1   
    14     8    10 1   
    15     8    22 1   
    16     8    23 1   
    17     9    13 1   
    18     9    24 1   
    19     9    25 1   
    20    10    11 1   
    21    10    12 1   
    22    11    26 1   
    23    11    27 1   
    24    11    28 1   
    25    12    29 1   
    26    12    30 1   
    27    12    31 1   
    28    13    14 1   
    29    13    15 1   
    30    14    32 1   
    31    14    33 1   
    32    14    34 1   
    33    15    35 1   
    34    15    36 1   
    35    15    37 1   
    36    16    17 1   
    37    16    18 1   
    38    16    38 1   
    39    16    39 1   
    40    17    20 1   
    41    17    21 1   
@<TRIPOS>SUBSTRUCTURE
     1 MXT         1 TEMP              0 ****  ****    0 ROOT
