@<TRIPOS>MOLECULE
MXT
   40    41     1     0     0
SMALL
bcc


@<TRIPOS>ATOM
      1 N1          -1.8210    -0.0370    -0.0210 n          1 MXT      -0.518400
      2 N2           2.4710    -0.1440    -0.0630 n3         1 MXT      -0.468100
      3 O2           2.5370    -1.3610    -0.7820 oh         1 MXT      -0.436300
      4 O11         -2.5910     1.8220     1.0790 o          1 MXT      -0.578500
      5 O12         -1.6820    -2.0110    -1.1870 o          1 MXT      -0.578500
      6 C14         -2.8050     0.7990     0.4730 c          1 MXT       0.709000
      7 C21         -0.3990     0.2510     0.1550 c6         1 MXT       0.119700
      8 C22          0.3170     0.4730    -1.1730 c6         1 MXT      -0.106400
      9 C23          0.3060    -0.8090     0.9960 c6         1 MXT      -0.106400
     10 C24          1.7990     0.8290    -0.9600 c6         1 MXT       0.181700
     11 C25          1.9550     2.2560    -0.4200 c3         1 MXT      -0.085350
     12 C26          2.5140     0.8170    -2.3160 c3         1 MXT      -0.085350
     13 C27          1.7870    -0.4540     1.2180 c6         1 MXT       0.181700
     14 C28          1.9320     0.7120     2.2070 c3         1 MXT      -0.085350
     15 C29          2.4950    -1.6440     1.8740 c3         1 MXT      -0.085350
     16 C11         -3.8440    -1.0600    -0.6290 c5         1 MXT      -0.170400
     17 C12         -4.1510     0.2200     0.1290 c5         1 MXT      -0.170400
     18 C13         -2.3380    -1.1390    -0.6730 c          1 MXT       0.709000
     19 H21         -0.3970     1.1900     0.7110 h1         1 MXT       0.075700
     20 H121        -4.7120     0.0510     1.0490 hc         1 MXT       0.085700
     21 H122        -4.7120     0.9460    -0.4610 hc         1 MXT       0.085700
     22 H221         0.2510    -0.4260    -1.7870 hc         1 MXT       0.062950
     23 H222        -0.1730     1.2770    -1.7300 hc         1 MXT       0.062950
     24 H231        -0.1920    -0.9020     1.9660 hc         1 MXT       0.062950
     25 H232         0.2400    -1.7820     0.5070 hc         1 MXT       0.062950
     26 H251         2.9750     2.4280    -0.0750 hc         1 MXT       0.041033
     27 H252         1.7560     2.9640    -1.2260 hc         1 MXT       0.041033
     28 H253         1.2790     2.5140     0.3880 hc         1 MXT       0.041033
     29 H261         2.3950    -0.1210    -2.8530 hc         1 MXT       0.041033
     30 H262         2.1030     1.6080    -2.9440 hc         1 MXT       0.041033
     31 H263         3.5810     1.0160    -2.1930 hc         1 MXT       0.041033
     32 H281         1.2590     1.5450     2.0240 hc         1 MXT       0.041033
     33 H282         1.7100     0.3520     3.2120 hc         1 MXT       0.041033
     34 H283         2.9520     1.0960     2.2070 hc         1 MXT       0.041033
     35 H291         3.5490    -1.4190     2.0490 hc         1 MXT       0.041033
     36 H292         2.0360    -1.8460     2.8420 hc         1 MXT       0.041033
     37 H293         2.4310    -2.5560     1.2840 hc         1 MXT       0.041033
     38 H111        -4.2330    -1.9530    -0.1390 hc         1 MXT       0.085700
     39 H112        -4.2290    -1.0580    -1.6490 hc         1 MXT       0.085700
     40 HO21         3.4800    -1.5300    -0.8640 ho         1 MXT       0.410000
@<TRIPOS>BOND
     1     1     6 1   
     2     1     7 1   
     3     1    18 1   
     4     2     3 1   
     5     2    10 1   
     6     2    13 1   
     7     3    40 1   
     8     4     6 2   
     9     5    18 2   
    10     6    17 1   
    11     7     8 1   
    12     7     9 1   
    13     7    19 1   
    14     8    10 1   
    15     8    22 1   
    16     8    23 1   
    17     9    13 1   
    18     9    24 1   
    19     9    25 1   
    20    10    11 1   
    21    10    12 1   
    22    11    26 1   
    23    11    27 1   
    24    11    28 1   
    25    12    29 1   
    26    12    30 1   
    27    12    31 1   
    28    13    14 1   
    29    13    15 1   
    30    14    32 1   
    31    14    33 1   
    32    14    34 1   
    33    15    35 1   
    34    15    36 1   
    35    15    37 1   
    36    16    17 1   
    37    16    18 1   
    38    16    38 1   
    39    16    39 1   
    40    17    20 1   
    41    17    21 1   
@<TRIPOS>SUBSTRUCTURE
     1 MXT         1 TEMP              0 ****  ****    0 ROOT
