@<TRIPOS>MOLECULE
MXU
   71    73     1     0     0
SMALL
abcg2


@<TRIPOS>ATOM
      1 N1          -8.4460     2.7680    22.2120 n          1 MXU      -0.249000
      2 N3          -6.8160     0.8550    24.0010 ns         1 MXU      -0.487900
      3 C4          -7.6970     2.3040    21.1430 c          1 MXU       0.527200
      4 C5          -9.8120     2.8170    22.1870 cc         1 MXU      -0.056400
      5 C6          -7.7150     3.0330    23.4760 c3         1 MXU       0.015700
      6 C7          -8.0010     0.5440    17.9430 c          1 MXU       0.654100
      7 C8          -6.9650    -0.7700    16.1280 c3         1 MXU       0.222000
      8 C10         -7.5990    -2.1040    16.5050 c3         1 MXU      -0.110767
      9 C13         -8.2030     4.2520    24.2470 c3         1 MXU      -0.043400
     10 C15         -8.6960     6.7940    23.9340 cx         1 MXU      -0.126400
     11 C17         -6.8190    -0.5390    24.4110 c3         1 MXU       0.083700
     12 C20         -7.4740    -1.1530    22.0200 c5         1 MXU      -0.153700
     13 C21         -8.9810    -1.3160    22.2630 c5         1 MXU      -0.091400
     14 C22         -9.5410    -1.7210    20.8900 c5         1 MXU       0.097000
     15 C24         -5.8530    -2.1890    26.0640 c          1 MXU       0.566100
     16 C1         -10.5040     2.4420    21.0820 cd         1 MXU      -0.262000
     17 C2          -9.8120     1.9550    19.9520 cd         1 MXU      -0.139000
     18 C3          -8.4460     1.8690    19.9820 cc         1 MXU      -0.049600
     19 N2          -7.6260     1.3430    18.9880 ns         1 MXU      -0.398100
     20 O1          -6.8980     0.1080    17.3170 os         1 MXU      -0.473100
     21 C9          -7.7070    -0.0650    14.9980 c3         1 MXU      -0.110767
     22 C11         -5.4960    -0.9560    15.7730 c3         1 MXU      -0.110767
     23 C12         -7.8030     1.7260    24.2800 c          1 MXU       0.587100
     24 C14         -7.9970     5.5410    23.4880 cx         1 MXU      -0.134700
     25 C16         -9.0890     6.1350    22.6380 cx         1 MXU      -0.126400
     26 C18         -5.7830    -0.7520    25.5390 c3         1 MXU       0.083300
     27 C19         -6.5650    -1.4530    23.2050 c3         1 MXU      -0.074400
     28 N4          -8.3890    -2.3450    20.2500 ns         1 MXU      -0.509900
     29 C23         -7.2030    -2.0420    20.8100 c          1 MXU       0.557000
     30 O2          -6.0140     0.1300    26.6220 oh         1 MXU      -0.638000
     31 N5          -4.9460    -3.0530    25.5980 nt         1 MXU      -0.593000
     32 O3          -6.7280    -2.4850    26.8780 o          1 MXU      -0.611100
     33 O4          -6.0990    -2.3920    20.3980 o          1 MXU      -0.566000
     34 O5          -6.4560     2.2210    21.2010 o          1 MXU      -0.608000
     35 O6          -8.7450     1.4970    25.0320 o          1 MXU      -0.596100
     36 O7          -9.1510     0.2860    17.6420 o          1 MXU      -0.547000
     37 H1          -6.1220     1.1470    23.3260 hn         1 MXU       0.334500
     38 H2         -10.2920     3.1630    23.0860 h4         1 MXU       0.220000
     39 H3          -6.6850     3.2020    23.1790 h1         1 MXU       0.101700
     40 H4          -7.0550    -2.5590    17.3340 hc         1 MXU       0.053033
     41 H5          -8.6430    -1.9850    16.7840 hc         1 MXU       0.053033
     42 H6          -7.5420    -2.7780    15.6490 hc         1 MXU       0.053033
     43 H7          -9.2440     4.1440    24.5510 hc         1 MXU       0.067700
     44 H8          -7.6190     4.2730    25.1720 hc         1 MXU       0.067700
     45 H9          -8.1490     7.7260    23.8920 hc         1 MXU       0.072700
     46 H10         -9.3840     6.7110    24.7660 hc         1 MXU       0.072700
     47 H11         -7.8060    -0.7370    24.8290 h1         1 MXU       0.092700
     48 H12         -7.2630    -0.1410    21.6670 hc         1 MXU       0.077700
     49 H13         -9.4530    -0.4130    22.6450 hc         1 MXU       0.063200
     50 H14         -9.1490    -2.1200    22.9830 hc         1 MXU       0.063200
     51 H15         -9.8720    -0.8510    20.3180 h1         1 MXU       0.053700
     52 H16        -10.3710    -2.4220    20.9650 h1         1 MXU       0.053700
     53 H17        -11.5820     2.5050    21.0810 ha         1 MXU       0.205000
     54 H18        -10.3530     1.6230    19.0820 ha         1 MXU       0.224000
     55 H19         -6.6380     1.4020    19.1970 hn         1 MXU       0.357500
     56 H20         -8.7630     0.0530    15.2250 hc         1 MXU       0.053033
     57 H21         -7.2680     0.9170    14.8140 hc         1 MXU       0.053033
     58 H22         -7.6090    -0.6590    14.0880 hc         1 MXU       0.053033
     59 H23         -4.9570    -1.4150    16.6020 hc         1 MXU       0.053033
     60 H24         -5.4120    -1.6050    14.9000 hc         1 MXU       0.053033
     61 H25         -5.0330     0.0040    15.5390 hc         1 MXU       0.053033
     62 H26         -6.9880     5.6770    23.1140 hc         1 MXU       0.081700
     63 H27         -8.8080     6.6160    21.7110 hc         1 MXU       0.072700
     64 H28        -10.0400     5.6210    22.6080 hc         1 MXU       0.072700
     65 H29         -4.7860    -0.5310    25.1530 h1         1 MXU       0.075700
     66 H30         -6.7090    -2.4890    23.5170 hc         1 MXU       0.061200
     67 H31         -5.5230    -1.3550    22.8880 hc         1 MXU       0.061200
     68 H32         -8.4450    -2.8090    19.3560 hn         1 MXU       0.328500
     69 H33         -6.7150    -0.2710    27.1590 ho         1 MXU       0.471000
     70 H34         -4.9820    -4.0210    25.8790 hn         1 MXU       0.322000
     71 H35         -4.2370    -2.7720    24.9400 hn         1 MXU       0.322000
@<TRIPOS>BOND
     1     1     3 1   
     2     1     4 1   
     3     1     5 1   
     4     2    11 1   
     5     2    23 1   
     6     2    37 1   
     7     3    18 1   
     8     3    34 2   
     9     4    16 2   
    10     4    38 1   
    11     5     9 1   
    12     5    23 1   
    13     5    39 1   
    14     6    19 1   
    15     6    20 1   
    16     6    36 2   
    17     7     8 1   
    18     7    20 1   
    19     7    21 1   
    20     7    22 1   
    21     8    40 1   
    22     8    41 1   
    23     8    42 1   
    24     9    24 1   
    25     9    43 1   
    26     9    44 1   
    27    10    24 1   
    28    10    25 1   
    29    10    45 1   
    30    10    46 1   
    31    11    26 1   
    32    11    27 1   
    33    11    47 1   
    34    12    13 1   
    35    12    27 1   
    36    12    29 1   
    37    12    48 1   
    38    13    14 1   
    39    13    49 1   
    40    13    50 1   
    41    14    28 1   
    42    14    51 1   
    43    14    52 1   
    44    15    26 1   
    45    15    31 1   
    46    15    32 2   
    47    16    17 1   
    48    16    53 1   
    49    17    18 2   
    50    17    54 1   
    51    18    19 1   
    52    19    55 1   
    53    21    56 1   
    54    21    57 1   
    55    21    58 1   
    56    22    59 1   
    57    22    60 1   
    58    22    61 1   
    59    23    35 2   
    60    24    25 1   
    61    24    62 1   
    62    25    63 1   
    63    25    64 1   
    64    26    30 1   
    65    26    65 1   
    66    27    66 1   
    67    27    67 1   
    68    28    29 1   
    69    28    68 1   
    70    29    33 2   
    71    30    69 1   
    72    31    70 1   
    73    31    71 1   
@<TRIPOS>SUBSTRUCTURE
     1 MXU         1 TEMP              0 ****  ****    0 ROOT
