@<TRIPOS>MOLECULE
MXU
   71    73     1     0     0
SMALL
No Charge or Current Charge


@<TRIPOS>ATOM
      1 N1          -8.3730     2.7580    22.2630 n          1 MXU      -0.249000
      2 N3          -6.7830     0.7280    23.7630 ns         1 MXU      -0.487900
      3 C4          -7.6580     2.2400    21.1560 c          1 MXU       0.527200
      4 C5          -9.7700     2.8320    22.2410 cc         1 MXU      -0.056400
      5 C6          -7.6010     3.0470    23.5220 c3         1 MXU       0.015700
      6 C7          -8.1350     0.5990    17.8050 c          1 MXU       0.654100
      7 C8          -7.0250    -0.6300    15.9720 c3         1 MXU       0.222000
      8 C10         -7.6990    -1.9890    16.2940 c3         1 MXU      -0.110767
      9 C13         -8.0770     4.2750    24.3560 c3         1 MXU      -0.043400
     10 C15         -8.7380     6.8210    24.1140 cx         1 MXU      -0.126400
     11 C17         -6.7340    -0.6640    24.2500 c3         1 MXU       0.083700
     12 C20         -7.4210    -1.4370    21.8210 c5         1 MXU      -0.153700
     13 C21         -8.9470    -1.4480    22.1120 c5         1 MXU      -0.091400
     14 C22         -9.5280    -1.7650    20.7070 c5         1 MXU       0.097000
     15 C24         -5.9190    -2.2350    26.1710 c          1 MXU       0.566100
     16 C1         -10.5140     2.4800    21.1350 cd         1 MXU      -0.262000
     17 C2          -9.8600     1.9690    19.9640 cd         1 MXU      -0.139000
     18 C3          -8.4840     1.8320    19.9820 cc         1 MXU      -0.049600
     19 N2          -7.7410     1.2680    18.9340 ns         1 MXU      -0.398100
     20 O1          -6.9970     0.1880    17.1650 os         1 MXU      -0.473100
     21 C9          -7.7240     0.1410    14.8230 c3         1 MXU      -0.110767
     22 C11         -5.5350    -0.8490    15.6290 c3         1 MXU      -0.110767
     23 C12         -7.4510     1.7650    24.3770 c          1 MXU       0.587100
     24 C14         -8.0560     5.5870    23.5710 cx         1 MXU      -0.134700
     25 C16         -9.2900     6.1310    22.8880 cx         1 MXU      -0.126400
     26 C18         -5.7080    -0.8820    25.4160 c3         1 MXU       0.083300
     27 C19         -6.4960    -1.6360    23.0580 c3         1 MXU      -0.074400
     28 N4          -8.5120    -2.6830    20.1960 ns         1 MXU      -0.509900
     29 C23         -7.2730    -2.5300    20.7530 c          1 MXU       0.557000
     30 O2          -5.7410     0.2310    26.3460 oh         1 MXU      -0.638000
     31 N5          -4.9350    -2.5890    27.0290 nt         1 MXU      -0.593000
     32 O3          -6.8980    -2.9550    26.0480 o          1 MXU      -0.611100
     33 O4          -6.3490    -3.3010    20.5500 o          1 MXU      -0.566000
     34 O5          -6.4380     2.0950    21.1790 o          1 MXU      -0.608000
     35 O6          -7.8940     1.6430    25.5120 o          1 MXU      -0.596100
     36 O7          -9.2850     0.3950    17.4520 o          1 MXU      -0.547000
     37 H1          -6.4210     0.9260    22.8330 hn         1 MXU       0.334500
     38 H2         -10.2040     3.1820    23.1710 h4         1 MXU       0.220000
     39 H3          -6.5740     3.2980    23.2310 h1         1 MXU       0.101700
     40 H4          -7.2780    -2.4240    17.2090 hc         1 MXU       0.053033
     41 H5          -8.7810    -1.8890    16.4250 hc         1 MXU       0.053033
     42 H6          -7.5350    -2.6990    15.4750 hc         1 MXU       0.053033
     43 H7          -9.0690     4.0920    24.7860 hc         1 MXU       0.067700
     44 H8          -7.4040     4.3820    25.2160 hc         1 MXU       0.067700
     45 H9          -8.2390     7.7770    23.9760 hc         1 MXU       0.072700
     46 H10         -9.2990     6.7300    25.0410 hc         1 MXU       0.072700
     47 H11         -7.7330    -0.8900    24.6510 h1         1 MXU       0.092700
     48 H12         -7.1740    -0.4950    21.3250 hc         1 MXU       0.077700
     49 H13         -9.3180    -0.4980    22.5160 hc         1 MXU       0.063200
     50 H14         -9.2100    -2.2370    22.8260 hc         1 MXU       0.063200
     51 H15         -9.5970    -0.8630    20.0850 h1         1 MXU       0.053700
     52 H16        -10.5260    -2.2210    20.7670 h1         1 MXU       0.053700
     53 H17        -11.5990     2.5740    21.1590 ha         1 MXU       0.205000
     54 H18        -10.4570     1.6850    19.1020 ha         1 MXU       0.224000
     55 H19         -6.7320     1.2820    19.0320 hn         1 MXU       0.357500
     56 H20         -8.8090     0.1910    14.9630 hc         1 MXU       0.053033
     57 H21         -7.3360     1.1640    14.7480 hc         1 MXU       0.053033
     58 H22         -7.5450    -0.3600    13.8640 hc         1 MXU       0.053033
     59 H23         -5.0160    -1.3530    16.4530 hc         1 MXU       0.053033
     60 H24         -5.4290    -1.4700    14.7310 hc         1 MXU       0.053033
     61 H25         -5.0330     0.1080    15.4420 hc         1 MXU       0.053033
     62 H26         -7.1060     5.7510    23.0660 hc         1 MXU       0.081700
     63 H27         -9.1600     6.6210    21.9260 hc         1 MXU       0.072700
     64 H28        -10.2300     5.5970    23.0000 hc         1 MXU       0.072700
     65 H29         -4.7060    -0.9370    24.9700 h1         1 MXU       0.075700
     66 H30         -6.6050    -2.6660    23.4170 hc         1 MXU       0.061200
     67 H31         -5.4510    -1.5420    22.7340 hc         1 MXU       0.061200
     68 H32         -8.6610    -3.4260    19.5240 hn         1 MXU       0.328500
     69 H33         -6.5780     0.7330    26.1550 ho         1 MXU       0.471000
     70 H34         -5.0210    -3.4430    27.5580 hn         1 MXU       0.322000
     71 H35         -4.1440    -1.9760    27.1660 hn         1 MXU       0.322000
@<TRIPOS>BOND
     1     1     3 1   
     2     1     4 1   
     3     1     5 1   
     4     2    11 1   
     5     2    23 1   
     6     2    37 1   
     7     3    18 1   
     8     3    34 2   
     9     4    16 2   
    10     4    38 1   
    11     5     9 1   
    12     5    23 1   
    13     5    39 1   
    14     6    19 1   
    15     6    20 1   
    16     6    36 2   
    17     7     8 1   
    18     7    20 1   
    19     7    21 1   
    20     7    22 1   
    21     8    40 1   
    22     8    41 1   
    23     8    42 1   
    24     9    24 1   
    25     9    43 1   
    26     9    44 1   
    27    10    24 1   
    28    10    25 1   
    29    10    45 1   
    30    10    46 1   
    31    11    26 1   
    32    11    27 1   
    33    11    47 1   
    34    12    13 1   
    35    12    27 1   
    36    12    29 1   
    37    12    48 1   
    38    13    14 1   
    39    13    49 1   
    40    13    50 1   
    41    14    28 1   
    42    14    51 1   
    43    14    52 1   
    44    15    26 1   
    45    15    31 1   
    46    15    32 2   
    47    16    17 1   
    48    16    53 1   
    49    17    18 2   
    50    17    54 1   
    51    18    19 1   
    52    19    55 1   
    53    21    56 1   
    54    21    57 1   
    55    21    58 1   
    56    22    59 1   
    57    22    60 1   
    58    22    61 1   
    59    23    35 2   
    60    24    25 1   
    61    24    62 1   
    62    25    63 1   
    63    25    64 1   
    64    26    30 1   
    65    26    65 1   
    66    27    66 1   
    67    27    67 1   
    68    28    29 1   
    69    28    68 1   
    70    29    33 2   
    71    30    69 1   
    72    31    70 1   
    73    31    71 1   
@<TRIPOS>SUBSTRUCTURE
     1 MXU         1 TEMP              0 ****  ****    0 ROOT
