@<TRIPOS>MOLECULE
MXV
   53    57     1     0     0
SMALL
abcg2


@<TRIPOS>ATOM
      1 C10         17.7570   -66.6370   -45.8260 ca         1 MXV      -0.072900
      2 C11         17.0200   -65.4550   -45.5800 ca         1 MXV      -0.053800
      3 C12         16.6590   -64.6340   -46.6870 ca         1 MXV      -0.055200
      4 C13         16.9960   -64.9480   -48.0010 ca         1 MXV      -0.105000
      5 C14         17.7150   -66.1150   -48.2140 ca         1 MXV      -0.102000
      6 C15         18.0880   -66.9410   -47.1490 ca         1 MXV      -0.125000
      7 C17         15.8890   -63.6580   -44.8340 cc         1 MXV      -0.156100
      8 C18         16.5150   -64.8030   -44.4110 cd         1 MXV      -0.222200
      9 C20         17.3970   -68.2660   -40.4570 cp         1 MXV      -0.082500
     10 C21         16.2420   -67.5800   -40.8440 ca         1 MXV      -0.183500
     11 C22         15.4020   -67.0290   -39.8790 ca         1 MXV       0.137600
     12 C23         15.7120   -67.1510   -38.5190 ca         1 MXV       0.043100
     13 C24         16.8760   -67.8320   -38.1360 ca         1 MXV       0.137600
     14 C25         17.7080   -68.3920   -39.0990 ca         1 MXV      -0.183500
     15 C27         18.2840   -68.5660   -36.3510 c3         1 MXV       0.146400
     16 C29         15.1860   -65.2970   -37.1640 c3         1 MXV       0.149900
     17 C31         13.8920   -66.2010   -41.5360 c3         1 MXV       0.146400
     18 C01         19.9510   -70.4680   -41.8900 ca         1 MXV       0.351900
     19 C03         18.2970   -68.8780   -41.4600 cp         1 MXV       0.472500
     20 C04         18.3620   -68.4680   -42.8060 ca         1 MXV       0.030400
     21 C05         19.2640   -69.1230   -43.6740 ca         1 MXV      -0.049200
     22 C06         20.0870   -70.1500   -43.2330 ca         1 MXV      -0.171000
     23 C08         18.1650   -67.5110   -44.7350 cc         1 MXV       0.485400
     24 N02         19.1010   -69.8670   -41.0430 nb         1 MXV      -0.695000
     25 N07         19.1110   -68.5040   -44.8850 na         1 MXV      -0.316600
     26 N09         17.7010   -67.4710   -43.4990 nd         1 MXV      -0.565100
     27 N16         15.9690   -63.5480   -46.2010 na         1 MXV      -0.098700
     28 O26         17.1080   -67.8930   -36.7980 os         1 MXV      -0.336100
     29 O28         14.8670   -66.6370   -37.5690 os         1 MXV      -0.337100
     30 O30         14.2550   -66.3570   -40.1640 os         1 MXV      -0.336100
     31 H1          16.7090   -64.3090   -48.8250 ha         1 MXV       0.117000
     32 H2          17.9910   -66.3970   -49.2220 ha         1 MXV       0.115000
     33 H3          18.6330   -67.8480   -47.3750 ha         1 MXV       0.101000
     34 H4          15.3800   -62.8980   -44.2630 h4         1 MXV       0.214000
     35 H5          16.6010   -65.1460   -43.3970 ha         1 MXV       0.229000
     36 H6          14.9250   -61.7630   -46.3460 h1         1 MXV       0.050033
     37 H7          16.2350   -61.9430   -47.5290 h1         1 MXV       0.050033
     38 H8          14.7200   -62.8450   -47.7350 h1         1 MXV       0.050033
     39 H9          16.0140   -67.4780   -41.8910 ha         1 MXV       0.142500
     40 H10         18.6020   -68.9240   -38.8190 ha         1 MXV       0.142500
     41 H11         18.2720   -68.4930   -35.2660 h1         1 MXV       0.042700
     42 H12         18.2740   -69.6160   -36.6500 h1         1 MXV       0.042700
     43 H13         19.1840   -68.0850   -36.7420 h1         1 MXV       0.042700
     44 H14         14.4540   -65.0180   -36.4090 h1         1 MXV       0.034367
     45 H15         16.1910   -65.2540   -36.7390 h1         1 MXV       0.034367
     46 H16         15.1160   -64.6140   -38.0150 h1         1 MXV       0.034367
     47 H17         12.9530   -65.6520   -41.5320 h1         1 MXV       0.042700
     48 H18         14.6480   -65.6320   -42.0810 h1         1 MXV       0.042700
     49 H19         13.7490   -67.1700   -42.0180 h1         1 MXV       0.042700
     50 H20         20.5600   -71.2580   -41.4640 h4         1 MXV       0.020100
     51 H21         20.7860   -70.6670   -43.8750 ha         1 MXV       0.127000
     52 H22         19.6460   -68.7030   -45.7150 hn         1 MXV       0.361000
     53 C19         15.4340   -62.4650   -47.0030 c3         1 MXV       0.067900
@<TRIPOS>BOND
     1     1     2 ar  
     2     1     6 ar  
     3     1    23 1   
     4     2     3 ar  
     5     2     8 1   
     6     3     4 ar  
     7     3    27 1   
     8     4     5 ar  
     9     4    31 1   
    10     5     6 ar  
    11     5    32 1   
    12     6    33 1   
    13     7     8 2   
    14     7    27 1   
    15     7    34 1   
    16     8    35 1   
    17     9    10 ar  
    18     9    14 ar  
    19     9    19 1   
    20    10    11 ar  
    21    10    39 1   
    22    11    12 ar  
    23    11    30 1   
    24    12    13 ar  
    25    12    29 1   
    26    13    14 ar  
    27    13    28 1   
    28    14    40 1   
    29    15    28 1   
    30    15    41 1   
    31    15    42 1   
    32    15    43 1   
    33    16    29 1   
    34    16    44 1   
    35    16    45 1   
    36    16    46 1   
    37    17    30 1   
    38    17    47 1   
    39    17    48 1   
    40    17    49 1   
    41    18    22 ar  
    42    18    24 ar  
    43    18    50 1   
    44    19    20 ar  
    45    19    24 ar  
    46    20    21 ar  
    47    20    26 1   
    48    21    22 ar  
    49    21    25 1   
    50    22    51 1   
    51    23    25 1   
    52    23    26 2   
    53    25    52 1   
    54    27    53 1   
    55    36    53 1   
    56    37    53 1   
    57    38    53 1   
@<TRIPOS>SUBSTRUCTURE
     1 MXV         1 TEMP              0 ****  ****    0 ROOT
