@<TRIPOS>MOLECULE
MXV
   53    57     1     0     0
SMALL
No Charge or Current Charge


@<TRIPOS>ATOM
      1 C10         17.8600   -66.5800   -45.9660 ca         1 MXV      -0.072900
      2 C11         17.0700   -65.4120   -45.8340 ca         1 MXV      -0.053800
      3 C12         16.7450   -64.6140   -46.9030 ca         1 MXV      -0.055200
      4 C13         17.1800   -64.9120   -48.2020 ca         1 MXV      -0.105000
      5 C14         17.9660   -66.0660   -48.3820 ca         1 MXV      -0.102000
      6 C15         18.3000   -66.8890   -47.2820 ca         1 MXV      -0.125000
      7 C17         15.7660   -63.6210   -45.0740 cc         1 MXV      -0.156100
      8 C18         16.4470   -64.7680   -44.6950 cd         1 MXV      -0.222200
      9 C20         17.3700   -68.1640   -40.4450 cp         1 MXV      -0.082500
     10 C21         16.1550   -67.5280   -40.7940 ca         1 MXV      -0.183500
     11 C22         15.3550   -66.8760   -39.8320 ca         1 MXV       0.137600
     12 C23         15.7480   -66.8490   -38.4730 ca         1 MXV       0.043100
     13 C24         16.9650   -67.4940   -38.0900 ca         1 MXV       0.137600
     14 C25         17.7480   -68.1360   -39.0780 ca         1 MXV      -0.183500
     15 C27         18.5900   -68.1260   -36.3150 c3         1 MXV       0.146400
     16 C29         15.1060   -66.0350   -36.1790 c3         1 MXV       0.149900
     17 C31         13.6930   -66.1860   -41.5420 c3         1 MXV       0.146400
     18 C01         19.7360   -70.6010   -41.9280 ca         1 MXV       0.351900
     19 C03         18.2270   -68.8570   -41.4830 cp         1 MXV       0.472500
     20 C04         18.3070   -68.4160   -42.8470 ca         1 MXV       0.030400
     21 C05         19.1160   -69.1240   -43.6980 ca         1 MXV      -0.049200
     22 C06         19.8520   -70.2330   -43.2790 ca         1 MXV      -0.171000
     23 C08         18.1990   -67.4600   -44.8300 cc         1 MXV       0.485400
     24 N02         18.9500   -69.9310   -41.0490 nb         1 MXV      -0.695000
     25 N07         19.0540   -68.5490   -44.9270 na         1 MXV      -0.316600
     26 N09         17.7300   -67.3550   -43.5720 nd         1 MXV      -0.565100
     27 N16         15.9670   -63.5480   -46.4630 na         1 MXV      -0.098700
     28 O26         17.3800   -67.4910   -36.7670 os         1 MXV      -0.336100
     29 O28         14.8920   -66.1800   -37.5950 os         1 MXV      -0.337100
     30 O30         14.1690   -66.2490   -40.1850 os         1 MXV      -0.336100
     31 H1          16.9220   -64.2790   -49.0470 ha         1 MXV       0.117000
     32 H2          18.3170   -66.3270   -49.3780 ha         1 MXV       0.115000
     33 H3          18.9020   -67.7740   -47.4690 ha         1 MXV       0.101000
     34 H4          15.1930   -62.8930   -44.5070 h4         1 MXV       0.214000
     35 H5          16.5030   -65.1150   -43.6670 ha         1 MXV       0.229000
     36 H6          14.8720   -61.7780   -46.8240 h1         1 MXV       0.050033
     37 H7          16.3030   -62.0130   -47.8710 h1         1 MXV       0.050033
     38 H8          14.8230   -62.9840   -48.1440 h1         1 MXV       0.050033
     39 H9          15.8330   -67.5650   -41.8290 ha         1 MXV       0.142500
     40 H10         18.6780   -68.6230   -38.8040 ha         1 MXV       0.142500
     41 H11         18.7040   -67.9950   -35.2320 h1         1 MXV       0.042700
     42 H12         18.5680   -69.2030   -36.5250 h1         1 MXV       0.042700
     43 H13         19.4680   -67.6860   -36.8040 h1         1 MXV       0.042700
     44 H14         14.2820   -65.4650   -35.7320 h1         1 MXV       0.034367
     45 H15         15.1410   -67.0140   -35.6850 h1         1 MXV       0.034367
     46 H16         16.0370   -65.4920   -35.9760 h1         1 MXV       0.034367
     47 H17         12.7460   -65.6340   -41.5870 h1         1 MXV       0.042700
     48 H18         14.4170   -65.6710   -42.1870 h1         1 MXV       0.042700
     49 H19         13.5170   -67.1930   -41.9420 h1         1 MXV       0.042700
     50 H20         20.2890   -71.4530   -41.5350 h4         1 MXV       0.020100
     51 H21         20.4940   -70.7890   -43.9570 ha         1 MXV       0.127000
     52 H22         19.5400   -68.8440   -45.7610 hn         1 MXV       0.361000
     53 C19         15.4600   -62.5170   -47.3820 c3         1 MXV       0.067900
@<TRIPOS>BOND
     1     1     2 ar  
     2     1     6 ar  
     3     1    23 1   
     4     2     3 ar  
     5     2     8 1   
     6     3     4 ar  
     7     3    27 1   
     8     4     5 ar  
     9     4    31 1   
    10     5     6 ar  
    11     5    32 1   
    12     6    33 1   
    13     7     8 2   
    14     7    27 1   
    15     7    34 1   
    16     8    35 1   
    17     9    10 ar  
    18     9    14 ar  
    19     9    19 1   
    20    10    11 ar  
    21    10    39 1   
    22    11    12 ar  
    23    11    30 1   
    24    12    13 ar  
    25    12    29 1   
    26    13    14 ar  
    27    13    28 1   
    28    14    40 1   
    29    15    28 1   
    30    15    41 1   
    31    15    42 1   
    32    15    43 1   
    33    16    29 1   
    34    16    44 1   
    35    16    45 1   
    36    16    46 1   
    37    17    30 1   
    38    17    47 1   
    39    17    48 1   
    40    17    49 1   
    41    18    22 ar  
    42    18    24 ar  
    43    18    50 1   
    44    19    20 ar  
    45    19    24 ar  
    46    20    21 ar  
    47    20    26 1   
    48    21    22 ar  
    49    21    25 1   
    50    22    51 1   
    51    23    25 1   
    52    23    26 2   
    53    25    52 1   
    54    27    53 1   
    55    36    53 1   
    56    37    53 1   
    57    38    53 1   
@<TRIPOS>SUBSTRUCTURE
     1 MXV         1 TEMP              0 ****  ****    0 ROOT
