@<TRIPOS>MOLECULE
MXW
   47    49     1     0     0
SMALL
No Charge or Current Charge


@<TRIPOS>ATOM
      1 C15        -35.0880   -10.7550   -15.5730 ca         1 MXW      -0.163000
      2 C17        -36.3690    -9.9110   -17.4360 ca         1 MXW       0.331000
      3 C21        -33.2160    -9.5740   -13.4430 c6         1 MXW       0.187300
      4 C22        -32.9830    -9.7680   -11.9200 c6         1 MXW       0.086500
      5 C24        -32.5320   -10.8360    -7.5520 ca         1 MXW      -0.081000
      6 C26        -33.2040   -15.8640    -9.4250 c3         1 MXW      -0.382100
      7 C04        -32.0280   -13.2150    -7.7970 ca         1 MXW       0.232000
      8 C05        -31.3080   -12.9200    -8.9730 ca         1 MXW      -0.106000
      9 C06        -31.2080   -11.5960    -9.4380 ca         1 MXW      -0.081000
     10 C07        -31.8270   -10.5450    -8.7340 ca         1 MXW      -0.066300
     11 C08        -31.7290    -9.1060    -9.2370 c3         1 MXW      -0.111100
     12 C11        -34.7850    -8.0790   -11.4790 c6         1 MXW       0.086500
     13 C12        -34.9820    -7.9200   -13.0100 c6         1 MXW       0.187300
     14 C14        -35.1870    -9.4690   -15.0020 ca         1 MXW       0.549900
     15 C16        -35.6930   -10.9830   -16.8260 ca         1 MXW      -0.076000
     16 C25        -32.6290   -12.1600    -7.0900 ca         1 MXW      -0.106000
     17 N10        -33.4640    -8.6410   -11.0550 n          1 MXW      -0.415800
     18 N13        -34.6120    -9.1610   -13.7450 nh         1 MXW      -0.763300
     19 N19        -36.4460    -8.6940   -16.8460 nb         1 MXW      -0.265000
     20 N20        -35.8620    -8.4790   -15.6440 nb         1 MXW      -0.391000
     21 O01        -30.6840   -16.0690    -8.6040 o          1 MXW      -0.524500
     22 O23        -33.8690    -8.0840    -8.8660 o          1 MXW      -0.580100
     23 O27        -32.5410   -16.9560    -7.1100 o          1 MXW      -0.524500
     24 S02        -32.0470   -15.9750    -8.0760 s6         1 MXW       1.183100
     25 Cl18       -37.1570   -10.1040   -18.9970 cl         1 MXW      -0.151000
     26 H1         -34.5720   -11.5560   -15.0560 ha         1 MXW       0.131000
     27 H2         -32.9520   -10.5110   -13.9540 h1         1 MXW       0.059450
     28 H3         -32.5200    -8.8050   -13.8090 h1         1 MXW       0.059450
     29 H4         -33.4960   -10.6870   -11.6040 h1         1 MXW       0.067700
     30 H5         -31.9090    -9.9360   -11.7790 h1         1 MXW       0.067700
     31 H6         -33.0080   -10.0360    -6.9890 ha         1 MXW       0.118000
     32 H7         -34.1910   -15.6610    -8.9970 h1         1 MXW       0.104367
     33 H8         -32.8800   -15.0500   -10.0800 h1         1 MXW       0.104367
     34 H9         -33.1880   -16.8240    -9.9490 h1         1 MXW       0.104367
     35 H10        -30.8140   -13.7050    -9.5360 ha         1 MXW       0.128500
     36 H11        -30.6430   -11.3940   -10.3450 ha         1 MXW       0.118000
     37 H12        -31.0170    -9.0550   -10.0670 hc         1 MXW       0.065700
     38 H13        -31.3650    -8.4720    -8.4200 hc         1 MXW       0.065700
     39 H14        -34.9340    -7.0960   -11.0100 h1         1 MXW       0.067700
     40 H15        -35.5770    -8.7390   -11.0970 h1         1 MXW       0.067700
     41 H16        -34.3680    -7.0780   -13.3640 h1         1 MXW       0.059450
     42 H17        -36.0350    -7.6540   -13.1870 h1         1 MXW       0.059450
     43 H18        -35.6480   -11.9550   -17.3090 ha         1 MXW       0.143000
     44 H19        -33.1810   -12.3640    -6.1760 ha         1 MXW       0.128500
     45 H20        -32.7770   -14.6620    -6.5080 hn         1 MXW       0.484000
     46 C09        -33.1060    -8.5800    -9.6860 c          1 MXW       0.607100
     47 N03        -32.1590   -14.5120    -7.2950 nu         1 MXW      -0.867100
@<TRIPOS>BOND
     1     1    14 ar  
     2     1    15 ar  
     3     1    26 1   
     4     2    15 ar  
     5     2    19 ar  
     6     2    25 1   
     7     3     4 1   
     8     3    18 1   
     9     3    27 1   
    10     3    28 1   
    11     4    17 1   
    12     4    29 1   
    13     4    30 1   
    14     5    10 ar  
    15     5    16 ar  
    16     5    31 1   
    17     6    24 1   
    18     6    32 1   
    19     6    33 1   
    20     6    34 1   
    21     7     8 ar  
    22     7    16 ar  
    23     7    47 1   
    24     8     9 ar  
    25     8    35 1   
    26     9    10 ar  
    27     9    36 1   
    28    10    11 1   
    29    11    37 1   
    30    11    38 1   
    31    11    46 1   
    32    12    13 1   
    33    12    17 1   
    34    12    39 1   
    35    12    40 1   
    36    13    18 1   
    37    13    41 1   
    38    13    42 1   
    39    14    18 1   
    40    14    20 ar  
    41    15    43 1   
    42    16    44 1   
    43    17    46 1   
    44    19    20 ar  
    45    21    24 2   
    46    22    46 2   
    47    23    24 2   
    48    24    47 1   
    49    45    47 1   
@<TRIPOS>SUBSTRUCTURE
     1 MXW         1 TEMP              0 ****  ****    0 ROOT
