@<TRIPOS>MOLECULE
MXW
   47    49     1     0     0
SMALL
abcg2


@<TRIPOS>ATOM
      1 C15        -34.4990    -7.4310   -15.9940 ca         1 MXW      -0.163000
      2 C17        -36.5030    -6.3070   -16.4960 ca         1 MXW       0.331000
      3 C21        -33.3770    -9.3070   -14.0570 c6         1 MXW       0.187300
      4 C22        -32.8630   -10.7170   -13.8240 c6         1 MXW       0.086500
      5 C24        -32.0100   -11.2980    -8.6890 ca         1 MXW      -0.081000
      6 C26        -33.7620   -13.9910    -5.2580 c3         1 MXW      -0.382100
      7 C04        -31.3170   -13.0970    -7.2500 ca         1 MXW       0.232000
      8 C05        -30.9770   -13.8500    -8.3670 ca         1 MXW      -0.106000
      9 C06        -31.1840   -13.3310    -9.6360 ca         1 MXW      -0.081000
     10 C07        -31.7080   -12.0560    -9.8160 ca         1 MXW      -0.066300
     11 C08        -31.9620   -11.5240   -11.1930 c3         1 MXW      -0.111100
     12 C11        -35.0830   -11.4890   -13.3800 c6         1 MXW       0.086500
     13 C12        -35.6460   -10.0970   -13.6120 c6         1 MXW       0.187300
     14 C14        -35.2920    -8.2660   -15.1680 ca         1 MXW       0.549900
     15 C16        -35.1210    -6.4280   -16.6720 ca         1 MXW      -0.076000
     16 C25        -31.8300   -11.8140    -7.4160 ca         1 MXW      -0.106000
     17 N10        -33.7210   -11.4200   -12.8960 n          1 MXW      -0.415800
     18 N13        -34.7690    -9.3250   -14.4810 nh         1 MXW      -0.763300
     19 N19        -37.1960    -7.0960   -15.7300 nb         1 MXW      -0.265000
     20 N20        -36.6020    -8.0620   -15.0620 nb         1 MXW      -0.391000
     21 O01        -32.2780   -15.8200    -6.4140 o          1 MXW      -0.524500
     22 O23        -34.2270   -12.2250   -10.8520 o          1 MXW      -0.580100
     23 O27        -31.7170   -15.1440    -4.0620 o          1 MXW      -0.524500
     24 S02        -32.1800   -14.7920    -5.3930 s6         1 MXW       1.183100
     25 CL18       -37.3670    -5.0550   -17.3150 cl         1 MXW      -0.151000
     26 H1         -33.4350    -7.5730   -16.1130 ha         1 MXW       0.131000
     27 H2         -32.7480    -8.8500   -14.8160 h1         1 MXW       0.059450
     28 H3         -33.2660    -8.7200   -13.1360 h1         1 MXW       0.059450
     29 H4         -32.8490   -11.2640   -14.7710 h1         1 MXW       0.067700
     30 H5         -31.8390   -10.6650   -13.4670 h1         1 MXW       0.067700
     31 H6         -32.4050   -10.2960    -8.8030 ha         1 MXW       0.118000
     32 H7         -33.6890   -13.1720    -4.5450 h1         1 MXW       0.104367
     33 H8         -34.0650   -13.6160    -6.2330 h1         1 MXW       0.104367
     34 H9         -34.4810   -14.7290    -4.9070 h1         1 MXW       0.104367
     35 H10        -30.5430   -14.8320    -8.2480 ha         1 MXW       0.128500
     36 H11        -30.9210   -13.9300   -10.5000 ha         1 MXW       0.118000
     37 H12        -31.2820   -11.9970   -11.9060 hc         1 MXW       0.065700
     38 H13        -31.7480   -10.4520   -11.2310 hc         1 MXW       0.065700
     39 H14        -35.7080   -12.0180   -12.6660 h1         1 MXW       0.067700
     40 H15        -35.0930   -12.0530   -14.3180 h1         1 MXW       0.067700
     41 H16        -35.7840    -9.5880   -12.6490 h1         1 MXW       0.059450
     42 H17        -36.6260   -10.1890   -14.0740 h1         1 MXW       0.059450
     43 H18        -34.5740    -5.7600   -17.3230 ha         1 MXW       0.143000
     44 H19        -32.0890   -11.2210    -6.5470 ha         1 MXW       0.128500
     45 H20        -30.9280   -12.9400    -5.2350 hn         1 MXW       0.484000
     46 C09        -33.4070   -11.7540   -11.6230 c          1 MXW       0.607100
     47 N03        -31.1180   -13.6340    -5.9510 nu         1 MXW      -0.867100
@<TRIPOS>BOND
     1     1    14 ar  
     2     1    15 ar  
     3     1    26 1   
     4     2    15 ar  
     5     2    19 ar  
     6     2    25 1   
     7     3     4 1   
     8     3    18 1   
     9     3    27 1   
    10     3    28 1   
    11     4    17 1   
    12     4    29 1   
    13     4    30 1   
    14     5    10 ar  
    15     5    16 ar  
    16     5    31 1   
    17     6    24 1   
    18     6    32 1   
    19     6    33 1   
    20     6    34 1   
    21     7     8 ar  
    22     7    16 ar  
    23     7    47 1   
    24     8     9 ar  
    25     8    35 1   
    26     9    10 ar  
    27     9    36 1   
    28    10    11 1   
    29    11    37 1   
    30    11    38 1   
    31    11    46 1   
    32    12    13 1   
    33    12    17 1   
    34    12    39 1   
    35    12    40 1   
    36    13    18 1   
    37    13    41 1   
    38    13    42 1   
    39    14    18 1   
    40    14    20 ar  
    41    15    43 1   
    42    16    44 1   
    43    17    46 1   
    44    19    20 ar  
    45    21    24 2   
    46    22    46 2   
    47    23    24 2   
    48    24    47 1   
    49    45    47 1   
@<TRIPOS>SUBSTRUCTURE
     1 MXW         1 TEMP              0 ****  ****    0 ROOT
