@<TRIPOS>MOLECULE
MXX
   32    33     1     0     0
SMALL
No Charge or Current Charge


@<TRIPOS>ATOM
      1 O17         -2.4540     2.8710     0.6170 o          1 MXX      -0.557000
      2 C9          -1.5280     2.1110     0.3680 c          1 MXX       0.558200
      3 N10         -1.7110     0.7720    -0.0020 n          1 MXX      -0.279000
      4 C16         -3.0730     0.4000    -0.4710 c3         1 MXX       0.094300
      5 C3          -0.6040    -0.1620    -0.1180 ca         1 MXX       0.112600
      6 C4          -0.8150    -1.5770    -0.0110 ca         1 MXX       0.064100
      7 O12         -2.0950    -2.0890     0.1470 os         1 MXX      -0.342100
      8 C13         -2.3780    -3.4950     0.2840 c3         1 MXX       0.149900
      9 C5           0.2810    -2.4570    -0.0500 ca         1 MXX      -0.126000
     10 C6           1.5810    -1.9620    -0.1050 ca         1 MXX      -0.209000
     11 C1           1.8230    -0.5770    -0.0730 ca         1 MXX       0.165100
     12 O11          3.1280    -0.1180    -0.0330 os         1 MXX      -0.340100
     13 C14          4.2780    -0.9840    -0.0410 c3         1 MXX       0.148900
     14 C2           0.7320     0.3470    -0.0510 ca         1 MXX      -0.122800
     15 C7           0.9670     1.8140     0.0690 cc         1 MXX       0.040600
     16 C15          2.3010     2.5160    -0.0690 c3         1 MXX      -0.050900
     17 C8          -0.1430     2.5730     0.3660 cd         1 MXX      -0.317200
     18 H16         -3.6120     1.2770    -0.8510 h1         1 MXX       0.053367
     19 H16A        -3.0060    -0.3190    -1.2960 h1         1 MXX       0.053367
     20 H16B        -3.6460    -0.0350     0.3570 h1         1 MXX       0.053367
     21 H13         -2.0540    -4.0480    -0.6070 h1         1 MXX       0.040700
     22 H13A        -1.8730    -3.9110     1.1640 h1         1 MXX       0.040700
     23 H13B        -3.4570    -3.6530     0.4060 h1         1 MXX       0.040700
     24 H5           0.1490    -3.5350    -0.0170 ha         1 MXX       0.119000
     25 H6           2.3930    -2.6830    -0.1250 ha         1 MXX       0.121000
     26 H14          4.2710    -1.6500     0.8320 h1         1 MXX       0.042700
     27 H14A         4.3030    -1.5930    -0.9530 h1         1 MXX       0.042700
     28 H14B         5.1990    -0.3900    -0.0050 h1         1 MXX       0.042700
     29 H15          2.8160     2.2130    -0.9880 hc         1 MXX       0.051700
     30 H15A         2.1800     3.6040    -0.1220 hc         1 MXX       0.051700
     31 H15B         2.9510     2.3060     0.7880 hc         1 MXX       0.051700
     32 H8          -0.0570     3.6360     0.5560 ha         1 MXX       0.205000
@<TRIPOS>BOND
     1     1     2 2   
     2     2     3 1   
     3     2    17 1   
     4     3     4 1   
     5     3     5 1   
     6     4    18 1   
     7     4    19 1   
     8     4    20 1   
     9     5     6 ar  
    10     5    14 ar  
    11     6     7 1   
    12     6     9 ar  
    13     7     8 1   
    14     8    21 1   
    15     8    22 1   
    16     8    23 1   
    17     9    10 ar  
    18     9    24 1   
    19    10    11 ar  
    20    10    25 1   
    21    11    12 1   
    22    11    14 ar  
    23    12    13 1   
    24    13    26 1   
    25    13    27 1   
    26    13    28 1   
    27    14    15 1   
    28    15    16 1   
    29    15    17 2   
    30    16    29 1   
    31    16    30 1   
    32    16    31 1   
    33    17    32 1   
@<TRIPOS>SUBSTRUCTURE
     1 MXX         1 TEMP              0 ****  ****    0 ROOT
