@<TRIPOS>MOLECULE
MXX
   32    33     1     0     0
SMALL
bcc


@<TRIPOS>ATOM
      1 O17         -2.4940     2.7960     0.2650 o          1 MXX      -0.632500
      2 C9          -1.5170     2.0560     0.1980 c          1 MXX       0.700700
      3 N10         -1.6560     0.7130    -0.0710 n          1 MXX      -0.346000
      4 C16         -2.9580     0.3190    -0.6160 c3         1 MXX       0.094300
      5 C3          -0.5810    -0.1650    -0.0150 ca         1 MXX       0.112600
      6 C4          -0.8030    -1.5620     0.0950 ca         1 MXX       0.064100
      7 O12         -2.0590    -1.9750     0.3650 os         1 MXX      -0.318900
      8 C13         -2.3110    -3.3610     0.4490 c3         1 MXX       0.126700
      9 C5           0.2660    -2.4220    -0.0150 ca         1 MXX      -0.144000
     10 C6           1.5670    -1.9480    -0.1540 ca         1 MXX      -0.227000
     11 C1           1.8190    -0.5940    -0.1230 ca         1 MXX       0.165100
     12 O11          3.0600    -0.0860    -0.1970 os         1 MXX      -0.316900
     13 C14          4.1600    -0.9700    -0.2540 c3         1 MXX       0.125700
     14 C2           0.7440     0.3320    -0.0150 ca         1 MXX      -0.122800
     15 C7           0.9290     1.7620     0.1580 cc         1 MXX       0.040600
     16 C15          2.2630     2.4480     0.2300 c3         1 MXX      -0.050900
     17 C8          -0.1670     2.5370     0.3220 cd         1 MXX      -0.267200
     18 H16         -3.3750     1.1730    -1.1400 h1         1 MXX       0.053367
     19 H16A        -2.8330    -0.4850    -1.3320 h1         1 MXX       0.053367
     20 H16B        -3.6610     0.0140     0.1550 h1         1 MXX       0.053367
     21 H13         -2.0740    -3.8790    -0.4850 h1         1 MXX       0.040700
     22 H13A        -1.7500    -3.8280     1.2630 h1         1 MXX       0.040700
     23 H13B        -3.3740    -3.4680     0.6490 h1         1 MXX       0.040700
     24 H5           0.1210    -3.4920     0.0370 ha         1 MXX       0.137000
     25 H6           2.3660    -2.6690    -0.2430 ha         1 MXX       0.139000
     26 H14          4.2080    -1.6220     0.6210 h1         1 MXX       0.042700
     27 H14A         4.1430    -1.5870    -1.1560 h1         1 MXX       0.042700
     28 H14B         5.0510    -0.3470    -0.2760 h1         1 MXX       0.042700
     29 H15          2.8340     2.3350    -0.6900 hc         1 MXX       0.051700
     30 H15A         2.1100     3.5130     0.3990 hc         1 MXX       0.051700
     31 H15B         2.8760     2.0650     1.0430 hc         1 MXX       0.051700
     32 H8          -0.0610     3.5990     0.4960 ha         1 MXX       0.155000
@<TRIPOS>BOND
     1     1     2 2   
     2     2     3 1   
     3     2    17 1   
     4     3     4 1   
     5     3     5 1   
     6     4    18 1   
     7     4    19 1   
     8     4    20 1   
     9     5     6 ar  
    10     5    14 ar  
    11     6     7 1   
    12     6     9 ar  
    13     7     8 1   
    14     8    21 1   
    15     8    22 1   
    16     8    23 1   
    17     9    10 ar  
    18     9    24 1   
    19    10    11 ar  
    20    10    25 1   
    21    11    12 1   
    22    11    14 ar  
    23    12    13 1   
    24    13    26 1   
    25    13    27 1   
    26    13    28 1   
    27    14    15 1   
    28    15    16 1   
    29    15    17 2   
    30    16    29 1   
    31    16    30 1   
    32    16    31 1   
    33    17    32 1   
@<TRIPOS>SUBSTRUCTURE
     1 MXX         1 TEMP              0 ****  ****    0 ROOT
