@<TRIPOS>MOLECULE
MXY
   26    26     1     0     0
SMALL
abcg2


@<TRIPOS>ATOM
      1 C1          36.3160     4.2650    38.3250 c6         1 MXY       0.378300
      2 C2          35.6970     4.4480    39.7140 c6         1 MXY       0.153300
      3 C3          35.6850     3.1030    40.4340 c6         1 MXY       0.175300
      4 C4          37.0830     2.4810    40.4400 c6         1 MXY       0.106300
      5 C5          37.5870     2.3970    38.9970 c6         1 MXY       0.154300
      6 O2          34.3730     4.9030    39.5890 os         1 MXY      -0.452000
      7 O3          35.1640     3.2980    41.7220 oh         1 MXY      -0.686000
      8 O4          37.9160     3.2650    41.2570 oh         1 MXY      -0.690000
      9 O5          37.5950     3.6880    38.4190 os         1 MXY      -0.478000
     10 CM          34.1760     6.2670    39.8700 c3         1 MXY       0.154900
     11 C6          38.9810     1.8170    38.8780 c3         1 MXY      -0.091100
     12 O1          36.4410     5.5000    37.7230 oh         1 MXY      -0.692000
     13 H1          35.6600     3.5950    37.7400 h2         1 MXY       0.018700
     14 H2          36.3110     5.1600    40.2840 h1         1 MXY       0.091700
     15 H3          35.0440     2.4220    39.8510 h1         1 MXY       0.035700
     16 H4          36.9990     1.4530    40.8270 h1         1 MXY       0.029700
     17 H5          36.8910     1.7430    38.4470 h1         1 MXY       0.032700
     18 HO3         35.0370     2.4360    42.1310 ho         1 MXY       0.501000
     19 HO4         38.7100     2.7640    41.4640 ho         1 MXY       0.502000
     20 HCM1        33.1040     6.4600    39.8160 h1         1 MXY       0.033367
     21 HCM2        34.5190     6.5310    40.8770 h1         1 MXY       0.033367
     22 HCM3        34.6780     6.9260    39.1560 h1         1 MXY       0.033367
     23 H61         39.2710     1.7180    37.8320 hc         1 MXY       0.047367
     24 H62         39.7260     2.4410    39.3740 hc         1 MXY       0.047367
     25 H63         39.0140     0.8240    39.3260 hc         1 MXY       0.047367
     26 HO1         36.5350     5.3830    36.7720 ho         1 MXY       0.516000
@<TRIPOS>BOND
     1     1     2 1   
     2     1     9 1   
     3     1    12 1   
     4     1    13 1   
     5     2     3 1   
     6     2     6 1   
     7     2    14 1   
     8     3     4 1   
     9     3     7 1   
    10     3    15 1   
    11     4     5 1   
    12     4     8 1   
    13     4    16 1   
    14     5     9 1   
    15     5    11 1   
    16     5    17 1   
    17     6    10 1   
    18     7    18 1   
    19     8    19 1   
    20    10    20 1   
    21    10    21 1   
    22    10    22 1   
    23    11    23 1   
    24    11    24 1   
    25    11    25 1   
    26    12    26 1   
@<TRIPOS>SUBSTRUCTURE
     1 MXY         1 TEMP              0 ****  ****    0 ROOT
