@<TRIPOS>MOLECULE
MXY
   26    26     1     0     0
SMALL
No Charge or Current Charge


@<TRIPOS>ATOM
      1 C1          36.2380     4.3550    38.4560 c6         1 MXY       0.378300
      2 C2          35.5750     4.3860    39.8860 c6         1 MXY       0.153300
      3 C3          35.5520     2.9310    40.4710 c6         1 MXY       0.175300
      4 C4          36.9700     2.2880    40.4190 c6         1 MXY       0.106300
      5 C5          37.4990     2.3720    38.9490 c6         1 MXY       0.154300
      6 O2          34.2310     4.9630    39.9210 os         1 MXY      -0.452000
      7 O3          35.0900     2.9120    41.8350 oh         1 MXY      -0.686000
      8 O4          37.8290     2.9680    41.3660 oh         1 MXY      -0.690000
      9 O5          37.5300     3.7430    38.5060 os         1 MXY      -0.478000
     10 CM          34.0790     6.3630    39.6190 c3         1 MXY       0.154900
     11 C6          38.9280     1.8010    38.7670 c3         1 MXY      -0.091100
     12 O1          36.5110     5.6380    37.9330 oh         1 MXY      -0.692000
     13 H1          35.5950     3.7980    37.7580 h2         1 MXY       0.018700
     14 H2          36.2210     4.9960    40.5320 h1         1 MXY       0.091700
     15 H3          34.8790     2.3260    39.8460 h1         1 MXY       0.035700
     16 H4          36.8840     1.2260    40.6930 h1         1 MXY       0.029700
     17 H5          36.8240     1.8040    38.2910 h1         1 MXY       0.032700
     18 HO3         35.9180     3.0360    42.3590 ho         1 MXY       0.501000
     19 HO4         38.7450     2.6380    41.2190 ho         1 MXY       0.502000
     20 HCM1        33.0670     6.6980    39.8810 h1         1 MXY       0.033367
     21 HCM2        34.7950     6.9690    40.1900 h1         1 MXY       0.033367
     22 HCM3        34.2240     6.5580    38.5500 h1         1 MXY       0.033367
     23 H61         39.2120     1.8010    37.7080 hc         1 MXY       0.047367
     24 H62         39.6760     2.3910    39.3100 hc         1 MXY       0.047367
     25 H63         38.9870     0.7660    39.1230 hc         1 MXY       0.047367
     26 HO1         37.4550     5.5590    37.6750 ho         1 MXY       0.516000
@<TRIPOS>BOND
     1     1     2 1   
     2     1     9 1   
     3     1    12 1   
     4     1    13 1   
     5     2     3 1   
     6     2     6 1   
     7     2    14 1   
     8     3     4 1   
     9     3     7 1   
    10     3    15 1   
    11     4     5 1   
    12     4     8 1   
    13     4    16 1   
    14     5     9 1   
    15     5    11 1   
    16     5    17 1   
    17     6    10 1   
    18     7    18 1   
    19     8    19 1   
    20    10    20 1   
    21    10    21 1   
    22    10    22 1   
    23    11    23 1   
    24    11    24 1   
    25    11    25 1   
    26    12    26 1   
@<TRIPOS>SUBSTRUCTURE
     1 MXY         1 TEMP              0 ****  ****    0 ROOT
