@<TRIPOS>MOLECULE
MXZ
   26    26     1     0     0
SMALL
bcc


@<TRIPOS>ATOM
      1 C1           1.2610    -0.3550     0.3690 c6         1 MXZ       0.302900
      2 C2          -0.1510    -0.2990     0.9770 c6         1 MXZ       0.140100
      3 C3          -1.0260     0.6760     0.2000 c6         1 MXZ       0.164100
      4 C4          -1.0060     0.3310    -1.2880 c6         1 MXZ       0.083100
      5 C5           0.4430     0.3120    -1.7720 c6         1 MXZ       0.117100
      6 O1           1.9120     0.8360     0.6730 oh         1 MXZ      -0.602800
      7 O2          -0.1410     0.1040     2.3190 os         1 MXZ      -0.378600
      8 O3          -2.3180     0.6350     0.7490 oh         1 MXZ      -0.564800
      9 O4          -1.6550    -0.9050    -1.4660 oh         1 MXZ      -0.574800
     10 O5           1.2050    -0.6120    -1.0060 os         1 MXZ      -0.427600
     11 CM           0.4560    -0.8130     3.2020 c3         1 MXZ       0.123700
     12 C6           0.5840    -0.0820    -3.2280 c3         1 MXZ      -0.093100
     13 H1C1         1.8070    -1.2140     0.7770 h2         1 MXZ       0.064700
     14 H2          -0.5750    -1.3110     0.8880 h1         1 MXZ       0.073700
     15 H3          -0.5940     1.6830     0.2950 h1         1 MXZ       0.054700
     16 H4          -1.5270     1.1320    -1.8350 h1         1 MXZ       0.031700
     17 H5           0.8390     1.3290    -1.6490 h1         1 MXZ       0.050700
     18 H1           2.8480     0.7380     0.4720 ho         1 MXZ       0.410000
     19 HA          -2.8570     1.2950     0.3000 ho         1 MXZ       0.401000
     20 HB          -1.8020    -1.0440    -2.4060 ho         1 MXZ       0.403000
     21 HMC1         0.2140    -0.4990     4.2160 h1         1 MXZ       0.028367
     22 HMC2         0.0730    -1.8310     3.0590 h1         1 MXZ       0.028367
     23 HMC3         1.5470    -0.8450     3.1100 h1         1 MXZ       0.028367
     24 H6C1         1.6230    -0.0120    -3.5490 hc         1 MXZ       0.045700
     25 H6C2         0.2470    -1.1030    -3.4100 hc         1 MXZ       0.045700
     26 H6C3        -0.0010     0.5900    -3.8580 hc         1 MXZ       0.045700
@<TRIPOS>BOND
     1     1     2 1   
     2     1     6 1   
     3     1    10 1   
     4     1    13 1   
     5     2     3 1   
     6     2     7 1   
     7     2    14 1   
     8     3     4 1   
     9     3     8 1   
    10     3    15 1   
    11     4     5 1   
    12     4     9 1   
    13     4    16 1   
    14     5    10 1   
    15     5    12 1   
    16     5    17 1   
    17     6    18 1   
    18     7    11 1   
    19     8    19 1   
    20     9    20 1   
    21    11    21 1   
    22    11    22 1   
    23    11    23 1   
    24    12    24 1   
    25    12    25 1   
    26    12    26 1   
@<TRIPOS>SUBSTRUCTURE
     1 MXZ         1 TEMP              0 ****  ****    0 ROOT
