@<TRIPOS>MOLECULE
MXZ
   26    26     1     0     0
SMALL
No Charge or Current Charge


@<TRIPOS>ATOM
      1 C1           1.2370    -0.4090     0.4010 c6         1 MXZ       0.349300
      2 C2          -0.1940    -0.2290     1.0330 c6         1 MXZ       0.163300
      3 C3          -1.0190     0.8350     0.2310 c6         1 MXZ       0.187300
      4 C4          -1.0240     0.4960    -1.2890 c6         1 MXZ       0.106300
      5 C5           0.4570     0.3680    -1.7740 c6         1 MXZ       0.140300
      6 O1           2.0790     0.7300     0.5830 oh         1 MXZ      -0.725000
      7 O2          -0.1610     0.1090     2.4520 os         1 MXZ      -0.425000
      8 O3          -2.3830     0.9070     0.6880 oh         1 MXZ      -0.687000
      9 O4          -1.7940    -0.7110    -1.5020 oh         1 MXZ      -0.697000
     10 O5           1.1520    -0.6500    -1.0170 os         1 MXZ      -0.474000
     11 CM           0.4420    -0.8470     3.3420 c3         1 MXZ       0.146900
     12 C6           0.5880    -0.0120    -3.2710 c3         1 MXZ      -0.093100
     13 H1C1         1.7110    -1.2840     0.8720 h2         1 MXZ       0.064700
     14 H2          -0.7110    -1.1940     0.9360 h1         1 MXZ       0.073700
     15 H3          -0.5310     1.8120     0.3640 h1         1 MXZ       0.054700
     16 H4          -1.4900     1.3330    -1.8320 h1         1 MXZ       0.031700
     17 H5           0.9610     1.3360    -1.6350 h1         1 MXZ       0.050700
     18 H1           2.8850     0.5300     0.0580 ho         1 MXZ       0.509000
     19 HA          -2.8430     0.2260     0.1410 ho         1 MXZ       0.500000
     20 HB          -1.6450    -0.9910    -2.4350 ho         1 MXZ       0.502000
     21 HMC1         0.3450    -0.5110     4.3820 h1         1 MXZ       0.028367
     22 HMC2        -0.0470    -1.8260     3.2520 h1         1 MXZ       0.028367
     23 HMC3         1.5110    -0.9700     3.1260 h1         1 MXZ       0.028367
     24 H6C1         1.6380     0.0070    -3.5850 hc         1 MXZ       0.045700
     25 H6C2         0.2000    -1.0170    -3.4740 hc         1 MXZ       0.045700
     26 H6C3         0.0430     0.6970    -3.9070 hc         1 MXZ       0.045700
@<TRIPOS>BOND
     1     1     2 1   
     2     1     6 1   
     3     1    10 1   
     4     1    13 1   
     5     2     3 1   
     6     2     7 1   
     7     2    14 1   
     8     3     4 1   
     9     3     8 1   
    10     3    15 1   
    11     4     5 1   
    12     4     9 1   
    13     4    16 1   
    14     5    10 1   
    15     5    12 1   
    16     5    17 1   
    17     6    18 1   
    18     7    11 1   
    19     8    19 1   
    20     9    20 1   
    21    11    21 1   
    22    11    22 1   
    23    11    23 1   
    24    12    24 1   
    25    12    25 1   
    26    12    26 1   
@<TRIPOS>SUBSTRUCTURE
     1 MXZ         1 TEMP              0 ****  ****    0 ROOT
