@<TRIPOS>MOLECULE
MY0
   22    21     1     0     0
SMALL
bcc


@<TRIPOS>ATOM
      1 N            1.1810     1.8060    -0.8800 n8         1 MY0      -0.635800
      2 N5           1.3240     0.9550     0.2090 n          1 MY0      -0.350200
      3 O           -4.1390    -0.7590    -0.8990 o          1 MY0      -0.846800
      4 O4           0.3870    -0.6490     1.4700 o          1 MY0      -0.632100
      5 O7           4.5970    -0.5750     0.0900 o          1 MY0      -0.843800
      6 O8           2.8430    -0.7300    -1.2840 o          1 MY0      -0.843800
      7 O2          -1.9170    -1.7390    -0.1580 oh         1 MY0      -0.625800
      8 C3          -1.0680     0.5200    -0.0380 c3         1 MY0      -0.134400
      9 C5           2.6640     0.6520     0.6560 c3         1 MY0      -0.071000
     10 C           -3.5360     0.0420    -0.1490 c          1 MY0       0.896600
     11 C4           0.2690     0.2060     0.6010 c          1 MY0       0.702100
     12 C6           3.4340    -0.3130    -0.2730 c          1 MY0       0.913600
     13 C2          -2.1630    -0.4560     0.3610 c3         1 MY0       0.013100
     14 H            1.5800     2.7070    -0.6420 hn         1 MY0       0.332800
     15 HO2         -2.7090    -1.8860    -0.7080 ho         1 MY0       0.416000
     16 H3          -1.3570     1.5360     0.2450 hc         1 MY0       0.062700
     17 H3A         -0.9700     0.5360    -1.1250 hc         1 MY0       0.062700
     18 H5           3.2170     1.5930     0.7340 h1         1 MY0       0.030700
     19 H5A          2.6260     0.2340     1.6610 h1         1 MY0       0.030700
     20 H20         -2.2210    -0.4970     1.4580 h1         1 MY0       0.034700
     21 H2           1.7170     1.4230    -1.6510 hn         1 MY0       0.332800
     22 OXT         -3.9210     1.1610     0.2230 o          1 MY0      -0.846800
@<TRIPOS>BOND
     1     1     2 1   
     2     1    14 1   
     3     1    21 1   
     4     2     9 1   
     5     2    11 1   
     6     3    10 1   
     7     4    11 2   
     8     5    12 1   
     9     6    12 1   
    10     7    13 1   
    11     7    15 1   
    12     8    11 1   
    13     8    13 1   
    14     8    16 1   
    15     8    17 1   
    16     9    12 1   
    17     9    18 1   
    18     9    19 1   
    19    10    13 1   
    20    10    22 1   
    21    13    20 1   
@<TRIPOS>SUBSTRUCTURE
     1 MY0         1 TEMP              0 ****  ****    0 ROOT
