@<TRIPOS>MOLECULE
MY0
   22    21     1     0     0
SMALL
No Charge or Current Charge


@<TRIPOS>ATOM
      1 N            1.1720     2.1380    -0.9550 n8         1 MY0      -0.635800
      2 N5           1.3770     1.0270    -0.0630 n          1 MY0      -0.350200
      3 O           -4.3290    -0.3680    -0.7720 o          1 MY0      -0.846800
      4 O4           0.5670    -0.6890     1.2730 o          1 MY0      -0.632100
      5 O7           3.9990    -1.1460     1.1110 o          1 MY0      -0.843800
      6 O8           3.2470    -1.1890    -0.9030 o          1 MY0      -0.843800
      7 O2          -1.9740    -1.7640    -0.5990 oh         1 MY0      -0.625800
      8 C3          -1.1020     0.4570    -0.0640 c3         1 MY0      -0.134400
      9 C5           2.7910     0.7990     0.3790 c3         1 MY0      -0.071000
     10 C           -3.6310    -0.0280     0.1790 c          1 MY0       0.896600
     11 C4           0.3290     0.1820     0.4390 c          1 MY0       0.702100
     12 C6           3.3710    -0.6390     0.1870 c          1 MY0       0.913600
     13 C2          -2.1700    -0.6180     0.2730 c3         1 MY0       0.013100
     14 H            1.5040     3.0100    -0.5240 hn         1 MY0       0.332800
     15 HO2         -2.7780    -1.7950    -1.1700 ho         1 MY0       0.416000
     16 H3          -1.3840     1.4290     0.3550 hc         1 MY0       0.062700
     17 H3A         -1.0760     0.6850    -1.1350 hc         1 MY0       0.062700
     18 H5           3.4570     1.4870    -0.1570 h1         1 MY0       0.030700
     19 H5A          2.8570     1.0510     1.4460 h1         1 MY0       0.030700
     20 H20         -2.0370    -0.9230     1.3190 h1         1 MY0       0.034700
     21 H2           1.7080     2.0050    -1.8210 hn         1 MY0       0.332800
     22 OXT         -4.0600     0.6560     1.1020 o          1 MY0      -0.846800
@<TRIPOS>BOND
     1     1     2 1   
     2     1    14 1   
     3     1    21 1   
     4     2     9 1   
     5     2    11 1   
     6     3    10 1   
     7     4    11 2   
     8     5    12 1   
     9     6    12 1   
    10     7    13 1   
    11     7    15 1   
    12     8    11 1   
    13     8    13 1   
    14     8    16 1   
    15     8    17 1   
    16     9    12 1   
    17     9    18 1   
    18     9    19 1   
    19    10    13 1   
    20    10    22 1   
    21    13    20 1   
@<TRIPOS>SUBSTRUCTURE
     1 MY0         1 TEMP              0 ****  ****    0 ROOT
