@<TRIPOS>MOLECULE
MY1
   50    51     1     0     0
SMALL
No Charge or Current Charge


@<TRIPOS>ATOM
      1 C1           3.0480    -0.2080     0.3120 c          1 MY1       0.591100
      2 N2           4.1420     0.6250    -0.1060 n          1 MY1      -0.237200
      3 O3           2.9790    -0.6420     1.4560 o          1 MY1      -0.596100
      4 N4           4.2470     1.2660    -1.3940 n8         1 MY1      -0.756200
      5 C5           5.2500     0.9130     0.8510 c3         1 MY1      -0.038000
      6 C6           6.0120    -0.3230     1.4000 c          1 MY1       0.714000
      7 O7           6.2650    -0.3600     2.5980 o          1 MY1      -0.732000
      8 O8           6.3740    -1.1910     0.6150 o          1 MY1      -0.732000
      9 C9           1.9320    -0.4820    -0.7120 c3         1 MY1      -0.206400
     10 C10          0.9720    -1.6460    -0.3530 c3         1 MY1       0.129300
     11 O11          1.6050    -2.8860    -0.7370 oh         1 MY1      -0.620000
     12 C12         -0.4310    -1.5030    -1.0400 c          1 MY1       0.560100
     13 N13         -1.3240    -0.4710    -0.6410 n          1 MY1      -0.396800
     14 O14         -0.7330    -2.2810    -1.9420 o          1 MY1      -0.624100
     15 C15         -1.1560     0.2640     0.6440 c3         1 MY1       0.136300
     16 C16         -2.6300    -0.3060    -1.3350 c3         1 MY1       0.136300
     17 C17         -3.8240    -0.7820    -0.5140 ca         1 MY1      -0.103300
     18 C18         -4.8390     0.1220    -0.1420 ca         1 MY1      -0.100250
     19 C19         -5.9330    -0.3160     0.6230 ca         1 MY1      -0.111750
     20 C20         -6.0230    -1.6620     1.0170 ca         1 MY1      -0.109500
     21 C21         -5.0170    -2.5690     0.6450 ca         1 MY1      -0.111750
     22 C22         -3.9210    -2.1310    -0.1190 ca         1 MY1      -0.100250
     23 C23         -1.6580     1.7050     0.6240 ca         1 MY1      -0.103300
     24 C24         -2.6990     2.1090     1.4830 ca         1 MY1      -0.100250
     25 C25         -3.1640     3.4350     1.4580 ca         1 MY1      -0.111750
     26 C26         -2.5880     4.3660     0.5780 ca         1 MY1      -0.109500
     27 C27         -1.5470     3.9700    -0.2780 ca         1 MY1      -0.111750
     28 C28         -1.0820     2.6440    -0.2540 ca         1 MY1      -0.100250
     29 H4N1         4.2680     0.5640    -2.1450 hn         1 MY1       0.393500
     30 H4N2         3.4270     1.8630    -1.5690 hn         1 MY1       0.393500
     31 H5C1         5.9920     1.5620     0.3700 h1         1 MY1       0.047200
     32 H5C2         4.8340     1.4640     1.7040 h1         1 MY1       0.047200
     33 H9C1         1.3880     0.4620    -0.8300 hc         1 MY1       0.058200
     34 H9C2         2.3630    -0.6080    -1.7120 hc         1 MY1       0.058200
     35 H10          0.7800    -1.6490     0.7280 h1         1 MY1       0.088700
     36 H11          1.0370    -3.2560    -1.4530 ho         1 MY1       0.458000
     37 H151        -1.6880    -0.2950     1.4260 h1         1 MY1       0.067700
     38 H152        -0.1030     0.2990     0.9430 h1         1 MY1       0.067700
     39 H161        -2.7600     0.7550    -1.5870 h1         1 MY1       0.067700
     40 H162        -2.6280    -0.8410    -2.2930 h1         1 MY1       0.067700
     41 H18         -4.7780     1.1660    -0.4410 ha         1 MY1       0.118000
     42 H19         -6.7120     0.3870     0.9100 ha         1 MY1       0.110750
     43 H20         -6.8700    -2.0010     1.6090 ha         1 MY1       0.109000
     44 H21         -5.0850    -3.6120     0.9480 ha         1 MY1       0.110750
     45 H22         -3.1460    -2.8400    -0.4030 ha         1 MY1       0.118000
     46 H24         -3.1540     1.3950     2.1660 ha         1 MY1       0.118000
     47 H25         -3.9700     3.7400     2.1210 ha         1 MY1       0.110750
     48 H26         -2.9490     5.3930     0.5580 ha         1 MY1       0.109000
     49 H27         -1.1010     4.6910    -0.9610 ha         1 MY1       0.110750
     50 H28         -0.2780     2.3450    -0.9240 ha         1 MY1       0.118000
@<TRIPOS>BOND
     1     1     2 1   
     2     1     3 2   
     3     1     9 1   
     4     2     4 1   
     5     2     5 1   
     6     4    29 1   
     7     4    30 1   
     8     5     6 1   
     9     5    31 1   
    10     5    32 1   
    11     6     7 1   
    12     6     8 1   
    13     9    10 1   
    14     9    33 1   
    15     9    34 1   
    16    10    11 1   
    17    10    12 1   
    18    10    35 1   
    19    11    36 1   
    20    12    13 1   
    21    12    14 2   
    22    13    15 1   
    23    13    16 1   
    24    15    23 1   
    25    15    37 1   
    26    15    38 1   
    27    16    17 1   
    28    16    39 1   
    29    16    40 1   
    30    17    18 ar  
    31    17    22 ar  
    32    18    19 ar  
    33    18    41 1   
    34    19    20 ar  
    35    19    42 1   
    36    20    21 ar  
    37    20    43 1   
    38    21    22 ar  
    39    21    44 1   
    40    22    45 1   
    41    23    24 ar  
    42    23    28 ar  
    43    24    25 ar  
    44    24    46 1   
    45    25    26 ar  
    46    25    47 1   
    47    26    27 ar  
    48    26    48 1   
    49    27    28 ar  
    50    27    49 1   
    51    28    50 1   
@<TRIPOS>SUBSTRUCTURE
     1 MY1         1 TEMP              0 ****  ****    0 ROOT
