@<TRIPOS>MOLECULE
MY1
   50    51     1     0     0
SMALL
abcg2


@<TRIPOS>ATOM
      1 C1           2.7100    -0.1610     0.6800 c          1 MY1       0.591100
      2 N2           3.5400     0.8900     0.4950 n          1 MY1      -0.237200
      3 O3           2.8530    -0.9460     1.6060 o          1 MY1      -0.596100
      4 N4           3.4810     1.7000    -0.6360 n8         1 MY1      -0.756200
      5 C5           4.7940     0.9530     1.2060 c3         1 MY1      -0.038000
      6 C6           5.9090     0.1150     0.5410 c          1 MY1       0.714000
      7 O7           7.0210     0.1860     1.0990 o          1 MY1      -0.732000
      8 O8           5.6040    -0.5410    -0.4690 o          1 MY1      -0.732000
      9 C9           1.5380    -0.2590    -0.2790 c3         1 MY1      -0.206400
     10 C10          0.6680    -1.4860    -0.0130 c3         1 MY1       0.129300
     11 O11          1.3310    -2.6660    -0.3560 oh         1 MY1      -0.620000
     12 C12         -0.6250    -1.3840    -0.8360 c          1 MY1       0.560100
     13 N13         -1.5760    -0.5000    -0.4750 n          1 MY1      -0.396800
     14 O14         -0.7330    -2.1060    -1.8200 o          1 MY1      -0.624100
     15 C15         -1.5390     0.3110     0.7230 c3         1 MY1       0.136300
     16 C16         -2.8110    -0.4020    -1.2480 c3         1 MY1       0.136300
     17 C17         -3.9630    -1.0970    -0.5700 ca         1 MY1      -0.103300
     18 C18         -5.0130    -0.3600    -0.0310 ca         1 MY1      -0.100250
     19 C19         -6.0720    -0.9960     0.6070 ca         1 MY1      -0.111750
     20 C20         -6.0880    -2.3780     0.7130 ca         1 MY1      -0.109500
     21 C21         -5.0440    -3.1230     0.1760 ca         1 MY1      -0.111750
     22 C22         -3.9890    -2.4860    -0.4610 ca         1 MY1      -0.100250
     23 C23         -1.3860     1.7940     0.4720 ca         1 MY1      -0.103300
     24 C24         -1.6830     2.6730     1.5120 ca         1 MY1      -0.100250
     25 C25         -1.5170     4.0400     1.3550 ca         1 MY1      -0.111750
     26 C26         -1.0570     4.5530     0.1480 ca         1 MY1      -0.109500
     27 C27         -0.7680     3.6870    -0.8950 ca         1 MY1      -0.111750
     28 C28         -0.9320     2.3160    -0.7350 ca         1 MY1      -0.100250
     29 H4N1         3.6060     1.1490    -1.4770 hn         1 MY1       0.393500
     30 H4N2         2.5910     2.1790    -0.6840 hn         1 MY1       0.393500
     31 H5C1         5.0990     2.0000     1.2520 h1         1 MY1       0.047200
     32 H5C2         4.6530     0.6210     2.2340 h1         1 MY1       0.047200
     33 H9C1         0.9550     0.6620    -0.2040 hc         1 MY1       0.058200
     34 H9C2         1.8890    -0.2950    -1.3150 hc         1 MY1       0.058200
     35 H10          0.4260    -1.5440     1.0520 h1         1 MY1       0.088700
     36 H11          1.0260    -2.9090    -1.2420 ho         1 MY1       0.458000
     37 H151        -2.4600     0.1400     1.2870 h1         1 MY1       0.067700
     38 H152        -0.7430    -0.0250     1.3860 h1         1 MY1       0.067700
     39 H161        -3.0460     0.6550    -1.3860 h1         1 MY1       0.067700
     40 H162        -2.6370    -0.8170    -2.2380 h1         1 MY1       0.067700
     41 H18         -5.0060     0.7210    -0.1120 ha         1 MY1       0.118000
     42 H19         -6.8820    -0.4090     1.0220 ha         1 MY1       0.110750
     43 H20         -6.9120    -2.8760     1.2080 ha         1 MY1       0.109000
     44 H21         -5.0530    -4.2030     0.2510 ha         1 MY1       0.110750
     45 H22         -3.1840    -3.0740    -0.8840 ha         1 MY1       0.118000
     46 H24         -2.0470     2.2820     2.4550 ha         1 MY1       0.118000
     47 H25         -1.7510     4.7070     2.1750 ha         1 MY1       0.110750
     48 H26         -0.9290     5.6200     0.0220 ha         1 MY1       0.109000
     49 H27         -0.4140     4.0740    -1.8420 ha         1 MY1       0.110750
     50 H28         -0.7100     1.6590    -1.5670 ha         1 MY1       0.118000
@<TRIPOS>BOND
     1     1     2 1   
     2     1     3 2   
     3     1     9 1   
     4     2     4 1   
     5     2     5 1   
     6     4    29 1   
     7     4    30 1   
     8     5     6 1   
     9     5    31 1   
    10     5    32 1   
    11     6     7 1   
    12     6     8 1   
    13     9    10 1   
    14     9    33 1   
    15     9    34 1   
    16    10    11 1   
    17    10    12 1   
    18    10    35 1   
    19    11    36 1   
    20    12    13 1   
    21    12    14 2   
    22    13    15 1   
    23    13    16 1   
    24    15    23 1   
    25    15    37 1   
    26    15    38 1   
    27    16    17 1   
    28    16    39 1   
    29    16    40 1   
    30    17    18 ar  
    31    17    22 ar  
    32    18    19 ar  
    33    18    41 1   
    34    19    20 ar  
    35    19    42 1   
    36    20    21 ar  
    37    20    43 1   
    38    21    22 ar  
    39    21    44 1   
    40    22    45 1   
    41    23    24 ar  
    42    23    28 ar  
    43    24    25 ar  
    44    24    46 1   
    45    25    26 ar  
    46    25    47 1   
    47    26    27 ar  
    48    26    48 1   
    49    27    28 ar  
    50    27    49 1   
    51    28    50 1   
@<TRIPOS>SUBSTRUCTURE
     1 MY1         1 TEMP              0 ****  ****    0 ROOT
