@<TRIPOS>MOLECULE
MY2
   36    36     1     0     0
SMALL
bcc


@<TRIPOS>ATOM
      1 C2          -0.8400    -0.2960     0.2890 c3         1 MY2      -0.204400
      2 C3          -0.2700    -1.5720    -0.3270 c3         1 MY2       0.121100
      3 C4           1.0530    -1.9110     0.3470 c          1 MY2       0.595100
      4 O5           1.2160    -2.8530     1.0790 o          1 MY2      -0.549000
      5 O6           1.9930    -1.0360     0.0330 os         1 MY2      -0.415900
      6 C7          -2.0030     0.2510    -0.5220 c          1 MY2       0.656100
      7 O8          -2.2400    -0.1500    -1.6520 o          1 MY2      -0.595100
      8 N9          -2.6960     1.2680     0.0380 n          1 MY2      -0.303200
      9 C10         -3.9200     1.7300    -0.5680 c3         1 MY2      -0.038000
     10 C12          3.9820     1.2190     0.7980 ca         1 MY2      -0.103000
     11 C13          4.7380     2.2980     0.3660 ca         1 MY2      -0.134000
     12 C14          5.6410     2.1400    -0.6790 ca         1 MY2      -0.121000
     13 C15          5.7850     0.9010    -1.2870 ca         1 MY2      -0.134000
     14 C16          5.0250    -0.1780    -0.8530 ca         1 MY2      -0.103000
     15 C17          4.1210    -0.0290     0.1930 ca         1 MY2      -0.092300
     16 C18         -5.1500     0.8930    -0.1560 c          1 MY2       0.923600
     17 C9           3.2850    -1.1840     0.6510 c3         1 MY2       0.186700
     18 O19         -4.9470    -0.1100     0.5490 o          1 MY2      -0.838300
     19 N16         -2.5350     1.6510     1.3650 n8         1 MY2      -0.643800
     20 O20         -6.2420     1.3160    -0.5820 o          1 MY2      -0.838300
     21 O57         -1.1550    -2.6470    -0.2530 oh         1 MY2      -0.545800
     22 H2C1        -0.0710     0.4810     0.3460 hc         1 MY2       0.057200
     23 H2C2        -1.1350    -0.4980     1.3230 hc         1 MY2       0.057200
     24 H3          -0.0700    -1.4000    -1.3870 h1         1 MY2       0.119700
     25 H101        -4.0670     2.7710    -0.2780 h1         1 MY2       0.049700
     26 H102        -3.8240     1.7170    -1.6550 h1         1 MY2       0.049700
     27 H14          6.2360     2.9810    -1.0130 ha         1 MY2       0.126000
     28 H15          6.4880     0.7740    -2.1000 ha         1 MY2       0.129500
     29 H16          5.1410    -1.1450    -1.3290 ha         1 MY2       0.132500
     30 H9C1         3.1720    -1.1830     1.7360 h1         1 MY2       0.052700
     31 H9C2         3.7290    -2.1350     0.3520 h1         1 MY2       0.052700
     32 H161        -2.7780     0.8880     1.9870 hn         1 MY2       0.338300
     33 H162        -1.5800     1.9290     1.5420 hn         1 MY2       0.338300
     34 H57         -1.2800    -2.8890     0.6720 ho         1 MY2       0.413000
     35 H12          3.2840     1.3430     1.6180 ha         1 MY2       0.132500
     36 H13          4.6270     3.2620     0.8460 ha         1 MY2       0.129500
@<TRIPOS>BOND
     1     1     2 1   
     2     1     6 1   
     3     1    22 1   
     4     1    23 1   
     5     2     3 1   
     6     2    21 1   
     7     2    24 1   
     8     3     4 2   
     9     3     5 1   
    10     5    17 1   
    11     6     7 2   
    12     6     8 1   
    13     8     9 1   
    14     8    19 1   
    15     9    16 1   
    16     9    25 1   
    17     9    26 1   
    18    10    11 ar  
    19    10    15 ar  
    20    10    35 1   
    21    11    12 ar  
    22    11    36 1   
    23    12    13 ar  
    24    12    27 1   
    25    13    14 ar  
    26    13    28 1   
    27    14    15 ar  
    28    14    29 1   
    29    15    17 1   
    30    16    18 1   
    31    16    20 1   
    32    17    30 1   
    33    17    31 1   
    34    19    32 1   
    35    19    33 1   
    36    21    34 1   
@<TRIPOS>SUBSTRUCTURE
     1 MY2         1 TEMP              0 ****  ****    0 ROOT
