@<TRIPOS>MOLECULE
MY2
   36    36     1     0     0
SMALL
No Charge or Current Charge


@<TRIPOS>ATOM
      1 C2          -0.9670    -0.3130     0.5380 c3         1 MY2      -0.204400
      2 C3          -0.3210    -1.5770    -0.0800 c3         1 MY2       0.144300
      3 C4           1.0750    -1.8860     0.5390 c          1 MY2       0.546100
      4 O5           1.3090    -2.8760     1.2240 o          1 MY2      -0.500000
      5 O6           2.0230    -0.9700     0.1600 os         1 MY2      -0.439100
      6 C7          -2.1060     0.3080    -0.2920 c          1 MY2       0.589100
      7 O8          -2.2050     0.0860    -1.4940 o          1 MY2      -0.595100
      8 N9          -3.0040     1.2080     0.3780 n          1 MY2      -0.236200
      9 C10         -4.1240     1.8280    -0.3890 c3         1 MY2      -0.038000
     10 C12          4.3060     1.2060     0.8110 ca         1 MY2      -0.085000
     11 C13          5.0970     2.2580     0.3160 ca         1 MY2      -0.116000
     12 C14          5.8070     2.0990    -0.8860 ca         1 MY2      -0.103000
     13 C15          5.7250     0.8880    -1.5930 ca         1 MY2      -0.116000
     14 C16          4.9340    -0.1640    -1.0990 ca         1 MY2      -0.085000
     15 C17          4.2210    -0.0120     0.1070 ca         1 MY2      -0.092300
     16 C18         -5.1290     0.8410    -1.0410 c          1 MY2       0.713000
     17 C9           3.3640    -1.1500     0.6430 c3         1 MY2       0.209900
     18 O19         -5.5700    -0.0830    -0.3690 o          1 MY2      -0.733000
     19 N16         -2.8860     1.6210     1.7550 n8         1 MY2      -0.754200
     20 O20         -5.4800     1.0530    -2.1950 o          1 MY2      -0.733000
     21 O57         -1.2350    -2.6890     0.0810 oh         1 MY2      -0.608000
     22 H2C1        -0.2200     0.4790     0.6650 hc         1 MY2       0.057200
     23 H2C2        -1.2980    -0.4920     1.5670 hc         1 MY2       0.057200
     24 H3          -0.1260    -1.3890    -1.1450 h1         1 MY2       0.119700
     25 H101        -4.7020     2.4860     0.2720 h1         1 MY2       0.049700
     26 H102        -3.6960     2.4530    -1.1820 h1         1 MY2       0.049700
     27 H14          6.4190     2.9130    -1.2690 ha         1 MY2       0.108000
     28 H15          6.2730     0.7640    -2.5250 ha         1 MY2       0.111500
     29 H16          4.8740    -1.0980    -1.6550 ha         1 MY2       0.114500
     30 H9C1         3.3870    -1.1390     1.7420 h1         1 MY2       0.052700
     31 H9C2         3.7750    -2.1110     0.3060 h1         1 MY2       0.052700
     32 H161        -2.9660     0.8090     2.3810 hn         1 MY2       0.393500
     33 H162        -1.9630     2.0400     1.9290 hn         1 MY2       0.393500
     34 H57         -0.7920    -3.3300     0.6830 ho         1 MY2       0.452000
     35 H12          3.7560     1.3380     1.7410 ha         1 MY2       0.114500
     36 H13          5.1580     3.1960     0.8640 ha         1 MY2       0.111500
@<TRIPOS>BOND
     1     1     2 1   
     2     1     6 1   
     3     1    22 1   
     4     1    23 1   
     5     2     3 1   
     6     2    21 1   
     7     2    24 1   
     8     3     4 2   
     9     3     5 1   
    10     5    17 1   
    11     6     7 2   
    12     6     8 1   
    13     8     9 1   
    14     8    19 1   
    15     9    16 1   
    16     9    25 1   
    17     9    26 1   
    18    10    11 ar  
    19    10    15 ar  
    20    10    35 1   
    21    11    12 ar  
    22    11    36 1   
    23    12    13 ar  
    24    12    27 1   
    25    13    14 ar  
    26    13    28 1   
    27    14    15 ar  
    28    14    29 1   
    29    15    17 1   
    30    16    18 1   
    31    16    20 1   
    32    17    30 1   
    33    17    31 1   
    34    19    32 1   
    35    19    33 1   
    36    21    34 1   
@<TRIPOS>SUBSTRUCTURE
     1 MY2         1 TEMP              0 ****  ****    0 ROOT
