@<TRIPOS>MOLECULE
MY3
   37    37     1     0     0
SMALL
No Charge or Current Charge


@<TRIPOS>ATOM
      1 C1          -4.2020     0.3960    -0.1270 ca         1 MY3      -0.111300
      2 C2          -4.2680    -0.3230     1.0820 ca         1 MY3      -0.095500
      3 N20          2.3960    -2.2720     1.1410 n8         1 MY3      -0.769200
      4 C3          -4.8440    -1.6050     1.1140 ca         1 MY3      -0.114000
      5 C4          -5.3570    -2.1760    -0.0640 ca         1 MY3      -0.110000
      6 C5          -5.2910    -1.4630    -1.2730 ca         1 MY3      -0.114000
      7 C6          -4.7150    -0.1810    -1.3060 ca         1 MY3      -0.095500
      8 C7          -3.5730     1.7810    -0.1610 c3         1 MY3       0.143300
      9 C9           0.2990     1.5920     0.2070 c3         1 MY3       0.115300
     10 C10          0.8310     0.1580     0.4440 c3         1 MY3      -0.179400
     11 C11          2.0920    -0.2250    -0.3500 c          1 MY3       0.636100
     12 C15         -1.1900     1.7240     0.6560 c          1 MY3       0.559100
     13 C12          4.0430    -1.8100    -0.6600 c3         1 MY3      -0.081000
     14 C13          5.1930    -0.7660    -0.6800 c          1 MY3       0.707000
     15 N2           2.8060    -1.4010     0.0690 n          1 MY3      -0.259200
     16 N3          -2.1250     1.7010    -0.3590 ns         1 MY3      -0.501900
     17 O4          -1.5090     1.8820     1.8290 o          1 MY3      -0.623100
     18 O6           2.4440     0.4180    -1.3350 o          1 MY3      -0.622100
     19 O7           5.5220    -0.2370     0.3730 o          1 MY3      -0.724500
     20 O8           5.7610    -0.5550    -1.7430 o          1 MY3      -0.724500
     21 O57          1.1480     2.5250     0.9150 oh         1 MY3      -0.620000
     22 H2          -3.8710     0.1110     1.9970 ha         1 MY3       0.118500
     23 H201         2.2570    -3.2300     0.7920 hn         1 MY3       0.407000
     24 H202         3.1340    -2.3290     1.8560 hn         1 MY3       0.407000
     25 H3          -4.8930    -2.1560     2.0500 ha         1 MY3       0.111000
     26 H4          -5.8020    -3.1680    -0.0390 ha         1 MY3       0.107000
     27 H5          -5.6870    -1.9050    -2.1860 ha         1 MY3       0.111000
     28 H6          -4.6670     0.3620    -2.2470 ha         1 MY3       0.118500
     29 H7C1        -4.0070     2.3650    -0.9830 h1         1 MY3       0.060200
     30 H7C2        -3.7940     2.3150     0.7730 h1         1 MY3       0.060200
     31 H9           0.3230     1.8050    -0.8710 h1         1 MY3       0.088700
     32 H101         0.9830    -0.0520     1.5080 hc         1 MY3       0.067700
     33 H102         0.0700    -0.5840     0.1760 hc         1 MY3       0.067700
     34 H121         3.7720    -2.0380    -1.6980 h1         1 MY3       0.043200
     35 H122         4.4490    -2.7280    -0.2170 h1         1 MY3       0.043200
     36 HA          -1.7790     1.5770    -1.3040 hn         1 MY3       0.319500
     37 H57          0.7870     2.5930     1.8290 ho         1 MY3       0.456000
@<TRIPOS>BOND
     1     1     2 ar  
     2     1     7 ar  
     3     1     8 1   
     4     2     4 ar  
     5     2    22 1   
     6     3    15 1   
     7     3    23 1   
     8     3    24 1   
     9     4     5 ar  
    10     4    25 1   
    11     5     6 ar  
    12     5    26 1   
    13     6     7 ar  
    14     6    27 1   
    15     7    28 1   
    16     8    16 1   
    17     8    29 1   
    18     8    30 1   
    19     9    10 1   
    20     9    12 1   
    21     9    21 1   
    22     9    31 1   
    23    10    11 1   
    24    10    32 1   
    25    10    33 1   
    26    11    15 1   
    27    11    18 2   
    28    12    16 1   
    29    12    17 2   
    30    13    14 1   
    31    13    15 1   
    32    13    34 1   
    33    13    35 1   
    34    14    19 1   
    35    14    20 1   
    36    16    36 1   
    37    21    37 1   
@<TRIPOS>SUBSTRUCTURE
     1 MY3         1 TEMP              0 ****  ****    0 ROOT
