@<TRIPOS>MOLECULE
MY3
   37    37     1     0     0
SMALL
abcg2


@<TRIPOS>ATOM
      1 C1          -4.0430     0.2530    -0.0660 ca         1 MY3      -0.111300
      2 C2          -3.5110    -0.6530     0.8510 ca         1 MY3      -0.095500
      3 N20          1.9700    -2.0070     0.7410 n8         1 MY3      -0.769200
      4 C3          -4.0230    -1.9380     0.9510 ca         1 MY3      -0.114000
      5 C4          -5.0780    -2.3360     0.1360 ca         1 MY3      -0.110000
      6 C5          -5.6150    -1.4400    -0.7760 ca         1 MY3      -0.114000
      7 C6          -5.0960    -0.1540    -0.8760 ca         1 MY3      -0.095500
      8 C7          -3.4870     1.6510    -0.1760 c3         1 MY3       0.143300
      9 C9           0.3200     1.7730    -0.0720 c3         1 MY3       0.115300
     10 C10          0.6810     0.2970     0.0800 c3         1 MY3      -0.179400
     11 C11          2.0270    -0.0260    -0.5440 c          1 MY3       0.636100
     12 C15         -1.1160     1.9590     0.4160 c          1 MY3       0.559100
     13 C12          3.8850    -1.5930    -0.6900 c3         1 MY3      -0.081000
     14 C13          4.9930    -1.2780     0.3410 c          1 MY3       0.707000
     15 N2           2.5600    -1.2280    -0.2460 n          1 MY3      -0.259200
     16 N3          -2.0720     1.6650    -0.4750 ns         1 MY3      -0.501900
     17 O4          -1.3350     2.3150     1.5660 o          1 MY3      -0.623100
     18 O6           2.5710     0.7470    -1.3230 o          1 MY3      -0.622100
     19 O7           4.6440    -0.7460     1.4090 o          1 MY3      -0.724500
     20 O8           6.1430    -1.6020    -0.0100 o          1 MY3      -0.724500
     21 O57          1.1800     2.6030     0.6550 oh         1 MY3      -0.620000
     22 H2          -2.6960    -0.3530     1.4990 ha         1 MY3       0.118500
     23 H201         1.8480    -2.9460     0.3830 hn         1 MY3       0.407000
     24 H202         2.6130    -2.0530     1.5240 hn         1 MY3       0.407000
     25 H3          -3.6010    -2.6300     1.6680 ha         1 MY3       0.111000
     26 H4          -5.4760    -3.3390     0.2140 ha         1 MY3       0.107000
     27 H5          -6.4350    -1.7410    -1.4150 ha         1 MY3       0.111000
     28 H6          -5.5170     0.5380    -1.5970 ha         1 MY3       0.118500
     29 H7C1        -4.0160     2.1990    -0.9560 h1         1 MY3       0.060200
     30 H7C2        -3.6400     2.1970     0.7550 h1         1 MY3       0.060200
     31 H9           0.3920     2.0660    -1.1230 h1         1 MY3       0.088700
     32 H101         0.6640     0.0180     1.1350 hc         1 MY3       0.067700
     33 H102        -0.0740    -0.3340    -0.4010 hc         1 MY3       0.067700
     34 H121         4.1110    -1.0890    -1.6290 h1         1 MY3       0.043200
     35 H122         3.8880    -2.6660    -0.9080 h1         1 MY3       0.043200
     36 HA          -1.7970     1.3720    -1.4000 hn         1 MY3       0.319500
     37 H57          0.8750     2.6010     1.5710 ho         1 MY3       0.456000
@<TRIPOS>BOND
     1     1     2 ar  
     2     1     7 ar  
     3     1     8 1   
     4     2     4 ar  
     5     2    22 1   
     6     3    15 1   
     7     3    23 1   
     8     3    24 1   
     9     4     5 ar  
    10     4    25 1   
    11     5     6 ar  
    12     5    26 1   
    13     6     7 ar  
    14     6    27 1   
    15     7    28 1   
    16     8    16 1   
    17     8    29 1   
    18     8    30 1   
    19     9    10 1   
    20     9    12 1   
    21     9    21 1   
    22     9    31 1   
    23    10    11 1   
    24    10    32 1   
    25    10    33 1   
    26    11    15 1   
    27    11    18 2   
    28    12    16 1   
    29    12    17 2   
    30    13    14 1   
    31    13    15 1   
    32    13    34 1   
    33    13    35 1   
    34    14    19 1   
    35    14    20 1   
    36    16    36 1   
    37    21    37 1   
@<TRIPOS>SUBSTRUCTURE
     1 MY3         1 TEMP              0 ****  ****    0 ROOT
