@<TRIPOS>MOLECULE
MY4
   40    40     1     0     0
SMALL
No Charge or Current Charge


@<TRIPOS>ATOM
      1 C1           7.8720     0.2710    -0.3390 ca         1 MY4      -0.113000
      2 C2           7.2350    -0.9250    -0.7090 ca         1 MY4      -0.110500
      3 N20         -4.4680     0.3380     1.5020 n8         1 MY4      -0.755200
      4 C3           5.8460    -0.9470    -0.9240 ca         1 MY4      -0.103500
      5 C4           5.0850     0.2290    -0.7710 ca         1 MY4      -0.077300
      6 C5           5.7280     1.4250    -0.3980 ca         1 MY4      -0.103500
      7 C6           7.1180     1.4470    -0.1830 ca         1 MY4      -0.110500
      8 C9          -1.0600    -0.3920     0.6200 c3         1 MY4       0.123300
      9 C10         -1.6870     1.0230     0.6430 c3         1 MY4      -0.202400
     10 C11         -2.8770     1.1100    -0.3270 c          1 MY4       0.589100
     11 C15          0.4350    -0.3750     1.0720 c          1 MY4       0.553100
     12 C12         -5.3570     0.8510    -0.7620 c3         1 MY4      -0.038000
     13 C13         -5.2750    -0.0230    -2.0430 c          1 MY4       0.713000
     14 C14          2.8120    -0.1580     0.2870 c3         1 MY4       0.106000
     15 N2          -4.1860     0.7790     0.1610 n          1 MY4      -0.238200
     16 N3           1.3630    -0.1820     0.0710 ns         1 MY4      -0.506900
     17 O4           0.7700    -0.5790     2.2330 o          1 MY4      -0.620100
     18 O6          -2.6880     1.4470    -1.4900 o          1 MY4      -0.597100
     19 O7          -5.5870     0.4880    -3.1110 o          1 MY4      -0.732500
     20 O8          -4.9520    -1.2000    -1.9370 o          1 MY4      -0.732500
     21 O14         -1.8460    -1.2640     1.4650 oh         1 MY4      -0.614000
     22 C16          3.5800     0.2040    -0.9970 c3         1 MY4      -0.051100
     23 H1           8.9470     0.2880    -0.1730 ha         1 MY4       0.109000
     24 H2           7.8180    -1.8360    -0.8290 ha         1 MY4       0.110500
     25 H201        -3.8270    -0.4360     1.7340 hn         1 MY4       0.394000
     26 H202        -4.2580     1.0890     2.1720 hn         1 MY4       0.394000
     27 H3           5.3610    -1.8780    -1.2080 ha         1 MY4       0.113000
     28 H5           5.1520     2.3390    -0.2720 ha         1 MY4       0.113000
     29 H6           7.6090     2.3740     0.1050 ha         1 MY4       0.110500
     30 H9          -1.0660    -0.7640    -0.4140 h1         1 MY4       0.088700
     31 H101        -0.9280     1.7470     0.3230 hc         1 MY4       0.052700
     32 H102        -1.9950     1.2420     1.6710 hc         1 MY4       0.052700
     33 H121        -6.2660     0.5520    -0.2260 h1         1 MY4       0.047700
     34 H122        -5.4870     1.8950    -1.0710 h1         1 MY4       0.047700
     35 H141         3.0430     0.5780     1.0690 h1         1 MY4       0.053700
     36 H142         3.1330    -1.1470     0.6400 h1         1 MY4       0.053700
     37 HA           1.0110    -0.0350    -0.8690 hn         1 MY4       0.318500
     38 H14         -1.2880    -1.4470     2.2570 ho         1 MY4       0.457000
     39 H161         3.3300    -0.5210    -1.7820 hc         1 MY4       0.052200
     40 H162         3.2360     1.1810    -1.3580 hc         1 MY4       0.052200
@<TRIPOS>BOND
     1     1     2 ar  
     2     1     7 ar  
     3     1    23 1   
     4     2     4 ar  
     5     2    24 1   
     6     3    15 1   
     7     3    25 1   
     8     3    26 1   
     9     4     5 ar  
    10     4    27 1   
    11     5     6 ar  
    12     5    22 1   
    13     6     7 ar  
    14     6    28 1   
    15     7    29 1   
    16     8     9 1   
    17     8    11 1   
    18     8    21 1   
    19     8    30 1   
    20     9    10 1   
    21     9    31 1   
    22     9    32 1   
    23    10    15 1   
    24    10    18 2   
    25    11    16 1   
    26    11    17 2   
    27    12    13 1   
    28    12    15 1   
    29    12    33 1   
    30    12    34 1   
    31    13    19 1   
    32    13    20 1   
    33    14    16 1   
    34    14    22 1   
    35    14    35 1   
    36    14    36 1   
    37    16    37 1   
    38    21    38 1   
    39    22    39 1   
    40    22    40 1   
@<TRIPOS>SUBSTRUCTURE
     1 MY4         1 TEMP              0 ****  ****    0 ROOT
