@<TRIPOS>MOLECULE
MY4
   40    40     1     0     0
SMALL
abcg2


@<TRIPOS>ATOM
      1 C1           7.5960     0.8260     0.4410 ca         1 MY4      -0.113000
      2 C2           7.2820    -0.2790    -0.3410 ca         1 MY4      -0.110500
      3 N20         -3.4170     2.0080     0.8180 n8         1 MY4      -0.755200
      4 C3           5.9880    -0.4500    -0.8160 ca         1 MY4      -0.103500
      5 C4           4.9910     0.4770    -0.5210 ca         1 MY4      -0.077300
      6 C5           5.3180     1.5810     0.2630 ca         1 MY4      -0.103500
      7 C6           6.6100     1.7560     0.7410 ca         1 MY4      -0.110500
      8 C9          -0.9410    -1.3080    -0.3160 c3         1 MY4       0.123300
      9 C10         -1.6160     0.0190     0.0290 c3         1 MY4      -0.202400
     10 C11         -2.9460     0.1840    -0.6850 c          1 MY4       0.589100
     11 C15          0.4670    -1.3000     0.2790 c          1 MY4       0.553100
     12 C12         -5.0570     1.3710    -0.7840 c3         1 MY4      -0.038000
     13 C13         -6.0710     0.5660     0.0570 c          1 MY4       0.713000
     14 C14          2.7600    -0.4810     0.0380 c3         1 MY4       0.106000
     15 N2          -3.7000     1.2430    -0.3100 n          1 MY4      -0.238200
     16 N3           1.3990    -0.6600    -0.4290 ns         1 MY4      -0.506900
     17 O4           0.6830    -1.8270     1.3640 o          1 MY4      -0.620100
     18 O6          -3.2760    -0.5530    -1.6020 o          1 MY4      -0.597100
     19 O7          -7.2630     0.7050    -0.2820 o          1 MY4      -0.732500
     20 O8          -5.6200    -0.1360     0.9780 o          1 MY4      -0.732500
     21 O14         -1.6570    -2.4040     0.1740 oh         1 MY4      -0.614000
     22 C16          3.5830     0.2690    -1.0030 c3         1 MY4      -0.051100
     23 H1           8.6040     0.9610     0.8120 ha         1 MY4       0.109000
     24 H2           8.0450    -1.0060    -0.5840 ha         1 MY4       0.110500
     25 H201        -3.4600     1.4350     1.6520 hn         1 MY4       0.394000
     26 H202        -2.4980     2.4210     0.7450 hn         1 MY4       0.394000
     27 H3           5.7500    -1.3110    -1.4290 ha         1 MY4       0.113000
     28 H5           4.5540     2.3140     0.4990 ha         1 MY4       0.113000
     29 H6           6.8470     2.6230     1.3460 ha         1 MY4       0.110500
     30 H9          -0.8760    -1.4110    -1.4020 h1         1 MY4       0.088700
     31 H101        -0.9690     0.8570    -0.2530 hc         1 MY4       0.052700
     32 H102        -1.7380     0.0870     1.1130 hc         1 MY4       0.052700
     33 H121        -5.3190     2.4300    -0.7600 h1         1 MY4       0.047700
     34 H122        -5.1190     1.0570    -1.8270 h1         1 MY4       0.047700
     35 H141         2.7590     0.0760     0.9790 h1         1 MY4       0.053700
     36 H142         3.2170    -1.4530     0.2420 h1         1 MY4       0.053700
     37 HA           1.1530    -0.2860    -1.3320 hn         1 MY4       0.318500
     38 H14         -1.3730    -2.5480     1.0860 ho         1 MY4       0.457000
     39 H161         3.5880    -0.2980    -1.9380 hc         1 MY4       0.052200
     40 H162         3.1120     1.2330    -1.2130 hc         1 MY4       0.052200
@<TRIPOS>BOND
     1     1     2 ar  
     2     1     7 ar  
     3     1    23 1   
     4     2     4 ar  
     5     2    24 1   
     6     3    15 1   
     7     3    25 1   
     8     3    26 1   
     9     4     5 ar  
    10     4    27 1   
    11     5     6 ar  
    12     5    22 1   
    13     6     7 ar  
    14     6    28 1   
    15     7    29 1   
    16     8     9 1   
    17     8    11 1   
    18     8    21 1   
    19     8    30 1   
    20     9    10 1   
    21     9    31 1   
    22     9    32 1   
    23    10    15 1   
    24    10    18 2   
    25    11    16 1   
    26    11    17 2   
    27    12    13 1   
    28    12    15 1   
    29    12    33 1   
    30    12    34 1   
    31    13    19 1   
    32    13    20 1   
    33    14    16 1   
    34    14    22 1   
    35    14    35 1   
    36    14    36 1   
    37    16    37 1   
    38    21    38 1   
    39    22    39 1   
    40    22    40 1   
@<TRIPOS>SUBSTRUCTURE
     1 MY4         1 TEMP              0 ****  ****    0 ROOT
