@<TRIPOS>MOLECULE
MY5
   47    47     1     0     0
SMALL
bcc


@<TRIPOS>ATOM
      1 N1           4.3090    -1.5260     0.0010 n          1 MY5      -0.304200
      2 N2           3.8470    -2.1160     1.1740 n8         1 MY5      -0.645800
      3 C3           5.6280    -1.9500    -0.3990 c3         1 MY5      -0.039000
      4 C4           3.7910    -0.3790    -0.4950 c          1 MY5       0.656100
      5 O5           4.2950     0.1960    -1.4490 o          1 MY5      -0.596100
      6 C6           6.7560    -1.2510     0.3930 c          1 MY5       0.923600
      7 O7           6.4180    -0.4090     1.2420 o          1 MY5      -0.838300
      8 O8           7.9110    -1.6130     0.0930 o          1 MY5      -0.838300
      9 C9           2.4960     0.1050     0.1320 c3         1 MY5      -0.202400
     10 C10          2.1260     1.5130    -0.3300 c3         1 MY5       0.101100
     11 C11          0.7140     1.8240     0.1650 c          1 MY5       0.625100
     12 O12          0.5420     2.3750     1.2440 o          1 MY5      -0.626100
     13 N13         -0.2770     1.4100    -0.6310 ns         1 MY5      -0.562900
     14 C14         -1.6750     1.5710    -0.3120 c3         1 MY5       0.037700
     15 C15         -2.1900     2.9670    -0.6650 c3         1 MY5      -0.109100
     16 C16         -2.4600     0.5280    -1.1010 c          1 MY5       0.653100
     17 O17         -2.0700     0.1210    -2.1870 o          1 MY5      -0.608100
     18 N18         -3.6140     0.1470    -0.5470 ns         1 MY5      -0.571900
     19 C19         -4.5330    -0.7600    -1.2150 c3         1 MY5       0.152300
     20 C20         -8.0720    -1.2050     1.1760 ca         1 MY5      -0.121000
     21 C21         -7.9670    -0.1540     0.2740 ca         1 MY5      -0.132000
     22 C22         -6.8260    -0.0170    -0.5040 ca         1 MY5      -0.111500
     23 C23         -5.7790    -0.9280    -0.3920 ca         1 MY5      -0.115300
     24 C24         -5.8910    -1.9760     0.5170 ca         1 MY5      -0.111500
     25 C25         -7.0320    -2.1170     1.2960 ca         1 MY5      -0.132000
     26 O28          3.0240     2.4750     0.1430 oh         1 MY5      -0.551800
     27 H2N1         3.9740    -1.4890     1.9590 hn         1 MY5       0.339300
     28 H2N2         2.8670    -2.3510     1.0920 hn         1 MY5       0.339300
     29 H3C1         5.6910    -3.0290    -0.2490 h1         1 MY5       0.048200
     30 H3C2         5.7680    -1.7730    -1.4660 h1         1 MY5       0.048200
     31 H9C1         1.7020    -0.6020    -0.1340 hc         1 MY5       0.055200
     32 H9C2         2.5530     0.0900     1.2230 hc         1 MY5       0.055200
     33 H10          2.1500     1.5560    -1.4210 h1         1 MY5       0.096700
     34 H13         -0.0580     1.0390    -1.5440 hn         1 MY5       0.344500
     35 H14         -1.8100     1.3980     0.7580 h1         1 MY5       0.076700
     36 H151        -3.2450     3.0710    -0.4140 hc         1 MY5       0.048700
     37 H152        -1.6380     3.7230    -0.1090 hc         1 MY5       0.048700
     38 H153        -2.0690     3.1640    -1.7310 hc         1 MY5       0.048700
     39 H18         -3.8560     0.4850     0.3710 hn         1 MY5       0.322500
     40 H191        -4.7820    -0.3630    -2.2010 h1         1 MY5       0.059200
     41 H192        -4.0510    -1.7280    -1.3710 h1         1 MY5       0.059200
     42 H22         -6.7520     0.8020    -1.2100 ha         1 MY5       0.135500
     43 H24         -5.0830    -2.6920     0.6140 ha         1 MY5       0.135500
     44 H25         -7.1080    -2.9400     1.9950 ha         1 MY5       0.132000
     45 H28          2.7880     2.6720     1.0580 ho         1 MY5       0.416000
     46 H20         -8.9640    -1.3160     1.7800 ha         1 MY5       0.130000
     47 H21         -8.7770     0.5560     0.1710 ha         1 MY5       0.132000
@<TRIPOS>BOND
     1     1     2 1   
     2     1     3 1   
     3     1     4 1   
     4     2    27 1   
     5     2    28 1   
     6     3     6 1   
     7     3    29 1   
     8     3    30 1   
     9     4     5 2   
    10     4     9 1   
    11     6     7 1   
    12     6     8 1   
    13     9    10 1   
    14     9    31 1   
    15     9    32 1   
    16    10    11 1   
    17    10    26 1   
    18    10    33 1   
    19    11    12 2   
    20    11    13 1   
    21    13    14 1   
    22    13    34 1   
    23    14    15 1   
    24    14    16 1   
    25    14    35 1   
    26    15    36 1   
    27    15    37 1   
    28    15    38 1   
    29    16    17 2   
    30    16    18 1   
    31    18    19 1   
    32    18    39 1   
    33    19    23 1   
    34    19    40 1   
    35    19    41 1   
    36    20    21 ar  
    37    20    25 ar  
    38    20    46 1   
    39    21    22 ar  
    40    21    47 1   
    41    22    23 ar  
    42    22    42 1   
    43    23    24 ar  
    44    24    25 ar  
    45    24    43 1   
    46    25    44 1   
    47    26    45 1   
@<TRIPOS>SUBSTRUCTURE
     1 MY5         1 TEMP              0 ****  ****    0 ROOT
