@<TRIPOS>MOLECULE
MY5
   47    47     1     0     0
SMALL
No Charge or Current Charge


@<TRIPOS>ATOM
      1 N1           5.1900    -0.8820     0.2710 n          1 MY5      -0.237200
      2 N2           5.5490    -0.2740     1.5260 n8         1 MY5      -0.756200
      3 C3           6.3270    -1.2460    -0.6250 c3         1 MY5      -0.039000
      4 C4           3.8420    -1.1190    -0.1620 c          1 MY5       0.589100
      5 O5           3.5930    -1.6080    -1.2570 o          1 MY5      -0.596100
      6 C6           6.3340    -0.5820    -2.0290 c          1 MY5       0.713000
      7 O7           6.1610     0.6280    -2.1120 o          1 MY5      -0.733000
      8 O8           6.5630    -1.2910    -3.0000 o          1 MY5      -0.733000
      9 C9           2.6890    -0.7330     0.7790 c3         1 MY5      -0.202400
     10 C10          2.2370     0.7260     0.5290 c3         1 MY5       0.124300
     11 C11          0.7670     0.9700     0.9960 c          1 MY5       0.558100
     12 O12          0.5030     1.4380     2.0980 o          1 MY5      -0.626100
     13 N13         -0.2140     0.6800     0.0700 ns         1 MY5      -0.495900
     14 C14         -1.6670     0.8670     0.2820 c3         1 MY5       0.037700
     15 C15         -2.0510     2.3610     0.1550 c3         1 MY5      -0.109100
     16 C16         -2.4790    -0.0270    -0.7020 c          1 MY5       0.586100
     17 O17         -1.9630    -0.6470    -1.6250 o          1 MY5      -0.608100
     18 N18         -3.8340    -0.0840    -0.4640 ns         1 MY5      -0.504900
     19 C19         -4.7790    -0.8560    -1.2660 c3         1 MY5       0.152300
     20 C20         -8.8330    -0.3020     0.1790 ca         1 MY5      -0.103000
     21 C21         -8.3020     0.5770    -0.7800 ca         1 MY5      -0.114000
     22 C22         -6.9890     0.3970    -1.2490 ca         1 MY5      -0.093500
     23 C23         -6.2000    -0.6650    -0.7630 ca         1 MY5      -0.115300
     24 C24         -6.7370    -1.5420     0.2010 ca         1 MY5      -0.093500
     25 C25         -8.0500    -1.3610     0.6690 ca         1 MY5      -0.114000
     26 O28          3.1490     1.6190     1.2090 oh         1 MY5      -0.614000
     27 H2N1         5.0140     0.6020     1.6290 hn         1 MY5       0.394500
     28 H2N2         5.2580    -0.8760     2.3060 hn         1 MY5       0.394500
     29 H3C1         7.2760    -0.9840    -0.1400 h1         1 MY5       0.048200
     30 H3C2         6.3200    -2.3340    -0.7640 h1         1 MY5       0.048200
     31 H9C1         1.8430    -1.4020     0.5790 hc         1 MY5       0.055200
     32 H9C2         2.9870    -0.8200     1.8300 hc         1 MY5       0.055200
     33 H10          2.2520     0.9210    -0.5530 h1         1 MY5       0.096700
     34 H13          0.0860     0.2800    -0.8140 hn         1 MY5       0.344500
     35 H14         -1.9170     0.5270     1.2950 h1         1 MY5       0.076700
     36 H151        -3.1190     2.5110     0.3530 hc         1 MY5       0.048700
     37 H152        -1.4900     2.9720     0.8710 hc         1 MY5       0.048700
     38 H153        -1.8350     2.7320    -0.8550 hc         1 MY5       0.048700
     39 H18         -4.1930     0.4510     0.3170 hn         1 MY5       0.322500
     40 H191        -4.7080    -0.5330    -2.3130 h1         1 MY5       0.059200
     41 H192        -4.5040    -1.9180    -1.2190 h1         1 MY5       0.059200
     42 H22         -6.5840     1.0830    -1.9900 ha         1 MY5       0.117500
     43 H24         -6.1370    -2.3630     0.5880 ha         1 MY5       0.117500
     44 H25         -8.4600    -2.0410     1.4130 ha         1 MY5       0.114000
     45 H28          2.6340     2.0160     1.9500 ho         1 MY5       0.455000
     46 H20         -9.8490    -0.1620     0.5420 ha         1 MY5       0.112000
     47 H21         -8.9060     1.3980    -1.1600 ha         1 MY5       0.114000
@<TRIPOS>BOND
     1     1     2 1   
     2     1     3 1   
     3     1     4 1   
     4     2    27 1   
     5     2    28 1   
     6     3     6 1   
     7     3    29 1   
     8     3    30 1   
     9     4     5 2   
    10     4     9 1   
    11     6     7 1   
    12     6     8 1   
    13     9    10 1   
    14     9    31 1   
    15     9    32 1   
    16    10    11 1   
    17    10    26 1   
    18    10    33 1   
    19    11    12 2   
    20    11    13 1   
    21    13    14 1   
    22    13    34 1   
    23    14    15 1   
    24    14    16 1   
    25    14    35 1   
    26    15    36 1   
    27    15    37 1   
    28    15    38 1   
    29    16    17 2   
    30    16    18 1   
    31    18    19 1   
    32    18    39 1   
    33    19    23 1   
    34    19    40 1   
    35    19    41 1   
    36    20    21 ar  
    37    20    25 ar  
    38    20    46 1   
    39    21    22 ar  
    40    21    47 1   
    41    22    23 ar  
    42    22    42 1   
    43    23    24 ar  
    44    24    25 ar  
    45    24    43 1   
    46    25    44 1   
    47    26    45 1   
@<TRIPOS>SUBSTRUCTURE
     1 MY5         1 TEMP              0 ****  ****    0 ROOT
