@<TRIPOS>MOLECULE
MY6
   19    20     1     0     0
SMALL
bcc


@<TRIPOS>ATOM
      1 C1           2.9890     0.9080    -0.0180 c3         1 MY6       0.034600
      2 N2           0.9440    -2.0740     0.1050 nc         1 MY6      -0.666000
      3 C3           2.0830    -1.4130     0.0750 cd         1 MY6       0.443400
      4 N4           1.9350    -0.0810     0.0250 na         1 MY6      -0.149900
      5 C5           0.5810     0.1410     0.0220 cd         1 MY6      -0.382200
      6 C6          -0.1940     1.3290    -0.0150 c          1 MY6       0.769100
      7 O7           0.1800     2.4920    -0.0570 o          1 MY6      -0.630500
      8 N8          -1.5500     1.0070     0.0040 ns         1 MY6      -0.515400
      9 C9          -2.0730    -0.2580     0.0490 cd         1 MY6       0.700800
     10 N10         -3.4180    -0.3440     0.1030 nv         1 MY6      -0.925800
     11 N11         -1.3430    -1.3370     0.0820 nc         1 MY6      -0.727700
     12 C12         -0.0100    -1.1110     0.0720 cc         1 MY6       0.614300
     13 H1           2.9210     1.5000    -0.9280 h1         1 MY6       0.060367
     14 H1A          2.9270     1.5700     0.8430 h1         1 MY6       0.060367
     15 H1B          3.9470     0.3970    -0.0010 h1         1 MY6       0.060367
     16 HN8         -2.1880     1.7920    -0.0040 hn         1 MY6       0.323500
     17 HN10        -3.9840     0.4280    -0.2070 hn         1 MY6       0.437300
     18 HN1A        -3.8130    -1.2560    -0.0560 hn         1 MY6       0.437300
     19 H3           3.0630    -1.8680     0.0890 h5         1 MY6       0.057100
@<TRIPOS>BOND
     1     1     4 1   
     2     1    13 1   
     3     1    14 1   
     4     1    15 1   
     5     2     3 2   
     6     2    12 1   
     7     3     4 1   
     8     3    19 1   
     9     4     5 1   
    10     5     6 1   
    11     5    12 2   
    12     6     7 2   
    13     6     8 1   
    14     8     9 1   
    15     8    16 1   
    16     9    10 1   
    17     9    11 2   
    18    10    17 1   
    19    10    18 1   
    20    11    12 1   
@<TRIPOS>SUBSTRUCTURE
     1 MY6         1 TEMP              0 ****  ****    0 ROOT
