@<TRIPOS>MOLECULE
MY6
   19    20     1     0     0
SMALL
No Charge or Current Charge


@<TRIPOS>ATOM
      1 C1           2.9820     0.9140    -0.0300 c3         1 MY6       0.063900
      2 N2           0.9040    -2.0930     0.1110 nc         1 MY6      -0.666000
      3 C3           2.0830    -1.4780     0.0710 cd         1 MY6       0.443400
      4 N4           1.9140    -0.0970     0.0220 na         1 MY6      -0.128500
      5 C5           0.5470     0.1310     0.0340 cd         1 MY6      -0.367600
      6 C6          -0.2550     1.3480     0.0030 c          1 MY6       0.626600
      7 O7           0.1820     2.4860    -0.0410 o          1 MY6      -0.555000
      8 N8          -1.5750     1.0620     0.0310 ns         1 MY6      -0.448400
      9 C9          -2.0490    -0.1940     0.0840 cd         1 MY6       0.700800
     10 N10         -3.3630    -0.3440     0.1050 nv         1 MY6      -1.036200
     11 N11         -1.3650    -1.3040     0.1160 nc         1 MY6      -0.727700
     12 C12         -0.0160    -1.1020     0.0880 cc         1 MY6       0.549000
     13 H1           2.8780     1.5110    -0.9440 h1         1 MY6       0.060367
     14 H1A          2.9060     1.5740     0.8430 h1         1 MY6       0.060367
     15 H1B          3.9640     0.4250    -0.0280 h1         1 MY6       0.060367
     16 HN8         -2.2050     1.8460     0.0320 hn         1 MY6       0.323500
     17 HN10        -3.9190     0.3760    -0.3410 hn         1 MY6       0.492500
     18 HN1A        -3.6780    -1.2950    -0.0440 hn         1 MY6       0.492500
     19 H3           3.0620    -1.9430     0.0730 h5         1 MY6       0.057100
@<TRIPOS>BOND
     1     1     4 1   
     2     1    13 1   
     3     1    14 1   
     4     1    15 1   
     5     2     3 2   
     6     2    12 1   
     7     3     4 1   
     8     3    19 1   
     9     4     5 1   
    10     5     6 1   
    11     5    12 2   
    12     6     7 2   
    13     6     8 1   
    14     8     9 1   
    15     8    16 1   
    16     9    10 1   
    17     9    11 2   
    18    10    17 1   
    19    10    18 1   
    20    11    12 1   
@<TRIPOS>SUBSTRUCTURE
     1 MY6         1 TEMP              0 ****  ****    0 ROOT
