@<TRIPOS>MOLECULE
MY7
   38    41     1     0     0
SMALL
abcg2


@<TRIPOS>ATOM
      1 C1          -4.0050     0.4680     1.3250 ca         1 MY7      -0.092500
      2 C11         -2.5690    -1.7140    -0.2520 c2         1 MY7       0.330300
      3 C12         -3.3380    -2.9220     0.1170 c3         1 MY7      -0.114400
      4 C14          0.4390    -0.0740    -0.4850 cc         1 MY7       0.461400
      5 C16          2.5510    -0.3740    -0.0150 ca         1 MY7      -0.089200
      6 C17          2.3220     0.8720    -0.6200 ca         1 MY7       0.056400
      7 C19          3.3970     1.7280    -0.8470 ca         1 MY7      -0.100000
      8 C2          -4.9910     1.0600     2.0990 ca         1 MY7      -0.110500
      9 C20          4.6570     1.3060    -0.4590 ca         1 MY7      -0.095000
     10 C21          4.8780     0.0580     0.1500 ca         1 MY7      -0.115600
     11 C22          3.8090    -0.8000     0.3780 ca         1 MY7      -0.100000
     12 C23          6.2840    -0.3590     0.5590 c          1 MY7       0.711600
     13 C3          -6.2290     1.3580     1.5410 ca         1 MY7      -0.107000
     14 C4          -6.4740     1.0600     0.2080 ca         1 MY7      -0.110500
     15 C5          -5.4870     0.4640    -0.5660 ca         1 MY7      -0.092500
     16 C6          -4.2480     0.1650    -0.0130 ca         1 MY7      -0.060300
     17 C7          -3.1700    -0.4760    -0.8460 c5         1 MY7      -0.192700
     18 C8          -1.9410     0.4030    -1.0080 c          1 MY7       0.569000
     19 N10         -1.3060    -1.6280    -0.1120 n2         1 MY7      -0.420300
     20 N15          1.3080    -0.9590     0.0570 na         1 MY7      -0.325600
     21 N18          0.9840     1.0300    -0.9040 nd         1 MY7      -0.588100
     22 N9          -0.9010    -0.3830    -0.5560 n          1 MY7      -0.105300
     23 O13         -1.8730     1.5290    -1.4240 o          1 MY7      -0.442000
     24 O24          7.2040     0.4470     0.3150 o          1 MY7      -0.720500
     25 O25          6.4010    -1.4750     1.1030 o          1 MY7      -0.720500
     26 H1          -3.0440     0.2390     1.7730 ha         1 MY7       0.119000
     27 H2          -3.8310    -3.3400    -0.7610 hc         1 MY7       0.055033
     28 H3          -2.6930    -3.6800     0.5560 hc         1 MY7       0.055033
     29 H4          -4.1220    -2.6720     0.8340 hc         1 MY7       0.055033
     30 H5           3.2490     2.6930    -1.3150 ha         1 MY7       0.107000
     31 H6          -4.7930     1.2900     3.1380 ha         1 MY7       0.112500
     32 H7           5.5060     1.9540    -0.6260 ha         1 MY7       0.131000
     33 H8           3.9640    -1.7640     0.8450 ha         1 MY7       0.134000
     34 H9          -6.9990     1.8200     2.1440 ha         1 MY7       0.109000
     35 H10         -7.4360     1.2880    -0.2310 ha         1 MY7       0.112500
     36 H11         -5.6820     0.2290    -1.6050 ha         1 MY7       0.119000
     37 H12         -3.5600    -0.7050    -1.8450 hc         1 MY7       0.102700
     38 H13          1.0760    -1.8660     0.4310 hn         1 MY7       0.361000
@<TRIPOS>BOND
     1     1     8 ar  
     2     1    16 ar  
     3     1    26 1   
     4     2     3 1   
     5     2    17 1   
     6     2    19 2   
     7     3    27 1   
     8     3    28 1   
     9     3    29 1   
    10     4    20 1   
    11     4    21 2   
    12     4    22 1   
    13     5     6 ar  
    14     5    11 ar  
    15     5    20 1   
    16     6     7 ar  
    17     6    21 1   
    18     7     9 ar  
    19     7    30 1   
    20     8    13 ar  
    21     8    31 1   
    22     9    10 ar  
    23     9    32 1   
    24    10    11 ar  
    25    10    12 1   
    26    11    33 1   
    27    12    24 1   
    28    12    25 1   
    29    13    14 ar  
    30    13    34 1   
    31    14    15 ar  
    32    14    35 1   
    33    15    16 ar  
    34    15    36 1   
    35    16    17 1   
    36    17    18 1   
    37    17    37 1   
    38    18    22 1   
    39    18    23 2   
    40    19    22 1   
    41    20    38 1   
@<TRIPOS>SUBSTRUCTURE
     1 MY7         1 TEMP              0 ****  ****    0 ROOT
