@<TRIPOS>MOLECULE
MY7
   38    41     1     0     0
SMALL
No Charge or Current Charge


@<TRIPOS>ATOM
      1 C1          -3.8140     0.6050     1.2210 ca         1 MY7      -0.092500
      2 C11         -2.6540    -1.7450    -0.3660 c2         1 MY7       0.330300
      3 C12         -3.5280    -2.9280    -0.0220 c3         1 MY7      -0.114400
      4 C14          0.3980    -0.1410    -0.5170 cc         1 MY7       0.461400
      5 C16          2.5410    -0.3590     0.0000 ca         1 MY7      -0.089200
      6 C17          2.3160     0.8460    -0.5950 ca         1 MY7       0.056400
      7 C19          3.3700     1.7440    -0.8000 ca         1 MY7      -0.100000
      8 C2          -4.7380     1.2140     2.0870 ca         1 MY7      -0.110500
      9 C20          4.6650     1.3680    -0.3770 ca         1 MY7      -0.095000
     10 C21          4.9010     0.1070     0.2460 ca         1 MY7      -0.115600
     11 C22          3.8040    -0.7750     0.4360 ca         1 MY7      -0.100000
     12 C23          6.3000    -0.2870     0.6980 c          1 MY7       0.711600
     13 C3          -6.0720     1.3890     1.6840 ca         1 MY7      -0.107000
     14 C4          -6.4800     0.9520     0.4130 ca         1 MY7      -0.110500
     15 C5          -5.5550     0.3420    -0.4520 ca         1 MY7      -0.092500
     16 C6          -4.2140     0.1630    -0.0580 ca         1 MY7      -0.060300
     17 C7          -3.2210    -0.5080    -1.0100 c5         1 MY7      -0.192700
     18 C8          -1.9520     0.3100    -1.2100 c          1 MY7       0.569000
     19 N10         -1.3910    -1.7160    -0.1290 n2         1 MY7      -0.420300
     20 N15          1.3390    -0.9930     0.0570 na         1 MY7      -0.325600
     21 N18          0.9750     1.0070    -0.9290 nd         1 MY7      -0.588100
     22 N9          -0.9550    -0.4890    -0.6130 n          1 MY7      -0.105300
     23 O13         -1.8120     1.3640    -1.8160 o          1 MY7      -0.442000
     24 O24          7.2180     0.5000     0.5170 o          1 MY7      -0.720500
     25 O25          6.4590    -1.3780     1.2280 o          1 MY7      -0.720500
     26 H1          -2.7860     0.4750     1.5530 ha         1 MY7       0.119000
     27 H2          -4.0420    -3.3040    -0.9130 hc         1 MY7       0.055033
     28 H3          -2.9400    -3.7520     0.3990 hc         1 MY7       0.055033
     29 H4          -4.2890    -2.6490     0.7150 hc         1 MY7       0.055033
     30 H5           3.1960     2.7060    -1.2740 ha         1 MY7       0.107000
     31 H6          -4.4200     1.5510     3.0710 ha         1 MY7       0.112500
     32 H7           5.4880     2.0620    -0.5340 ha         1 MY7       0.131000
     33 H8           3.9330    -1.7470     0.9070 ha         1 MY7       0.134000
     34 H9          -6.7870     1.8610     2.3540 ha         1 MY7       0.109000
     35 H10         -7.5120     1.0840     0.0980 ha         1 MY7       0.112500
     36 H11         -5.8850     0.0060    -1.4330 ha         1 MY7       0.119000
     37 H12         -3.6570    -0.7080    -1.9940 hc         1 MY7       0.102700
     38 H13          1.1370    -1.9070     0.4390 hn         1 MY7       0.361000
@<TRIPOS>BOND
     1     1     8 ar  
     2     1    16 ar  
     3     1    26 1   
     4     2     3 1   
     5     2    17 1   
     6     2    19 2   
     7     3    27 1   
     8     3    28 1   
     9     3    29 1   
    10     4    20 1   
    11     4    21 2   
    12     4    22 1   
    13     5     6 ar  
    14     5    11 ar  
    15     5    20 1   
    16     6     7 ar  
    17     6    21 1   
    18     7     9 ar  
    19     7    30 1   
    20     8    13 ar  
    21     8    31 1   
    22     9    10 ar  
    23     9    32 1   
    24    10    11 ar  
    25    10    12 1   
    26    11    33 1   
    27    12    24 1   
    28    12    25 1   
    29    13    14 ar  
    30    13    34 1   
    31    14    15 ar  
    32    14    35 1   
    33    15    16 ar  
    34    15    36 1   
    35    16    17 1   
    36    17    18 1   
    37    17    37 1   
    38    18    22 1   
    39    18    23 2   
    40    19    22 1   
    41    20    38 1   
@<TRIPOS>SUBSTRUCTURE
     1 MY7         1 TEMP              0 ****  ****    0 ROOT
