@<TRIPOS>MOLECULE
MY8
   85    86     1     0     0
SMALL
bcc


@<TRIPOS>ATOM
      1 O1          -4.6520    -1.3630    -0.2170 os         1 MY8      -0.423900
      2 C1          -5.9890    -1.2630     0.3080 c3         1 MY8       0.157100
      3 C2          -6.8170    -2.2960    -0.4400 c3         1 MY8      -0.078400
      4 C3          -6.3640    -3.7280    -0.1920 c3         1 MY8      -0.088100
      5 C4          -6.5130     0.1790     0.1410 c3         1 MY8      -0.042500
      6 C5          -7.8360     0.3570     0.8870 c3         1 MY8      -0.085100
      7 C6          -5.4910     1.1480     0.6420 c2         1 MY8      -0.155200
      8 C7          -4.7620     1.9470    -0.1390 ce         1 MY8      -0.132000
      9 C8          -3.6110     2.6880     0.3400 ce         1 MY8      -0.123000
     10 C9          -2.7880     3.3660    -0.4630 c2         1 MY8      -0.205200
     11 C10         -1.4480     3.9070    -0.0690 c3         1 MY8       0.185300
     12 O2          -1.2110     3.8470     1.3180 oh         1 MY8      -0.597800
     13 C11         -0.3280     3.1160    -0.7810 c3         1 MY8      -0.049700
     14 C12         -0.2770     3.4990    -2.2570 c3         1 MY8      -0.090100
     15 C13         -0.4650     1.6060    -0.5390 c3         1 MY8      -0.069400
     16 C14          0.6770     0.7600    -1.1250 c3         1 MY8      -0.071700
     17 C15          0.3510     0.2300    -2.5210 c3         1 MY8      -0.083100
     18 C16          1.1190    -0.3760    -0.1850 c3         1 MY8       0.171100
     19 O3           2.3850    -0.8470    -0.6440 os         1 MY8      -0.417600
     20 C17          3.4700    -0.6100     0.1740 c6         1 MY8       0.313900
     21 O4           3.7190     0.7680     0.2020 os         1 MY8      -0.440600
     22 C18          4.7870     1.1090     1.0720 c6         1 MY8       0.162100
     23 C19          4.8830     2.6190     1.1220 c3         1 MY8      -0.088100
     24 C20          6.0690     0.4500     0.5840 c6         1 MY8      -0.148400
     25 C21          5.9000    -1.0700     0.4530 c6         1 MY8       0.192500
     26 N1           7.0750    -1.7880    -0.0160 n3         1 MY8      -0.708600
     27 C22          7.5960    -1.3500    -1.2930 c3         1 MY8       0.158600
     28 C23          8.1200    -1.8560     0.9810 c3         1 MY8       0.158600
     29 C24          4.6690    -1.3720    -0.4000 c6         1 MY8       0.135100
     30 O5           4.4400    -2.7580    -0.3900 oh         1 MY8      -0.574800
     31 C25          0.1770    -1.5940    -0.1090 c3         1 MY8      -0.052500
     32 C26          0.7670    -2.6860     0.7940 c3         1 MY8      -0.089100
     33 C27         -1.1650    -1.2590     0.4570 c2         1 MY8      -0.075200
     34 C28         -2.3380    -1.4850    -0.1350 ce         1 MY8      -0.230200
     35 C29         -3.6030    -1.2710     0.5950 c          1 MY8       0.653300
     36 O6          -3.6790    -1.0720     1.7860 o          1 MY8      -0.551000
     37 HA          -5.9760    -1.5100     1.3740 h1         1 MY8       0.067700
     38 H21C        -7.8560    -2.1940    -0.1230 hc         1 MY8       0.049200
     39 H22C        -6.8010    -2.0700    -1.5110 hc         1 MY8       0.049200
     40 H4          -6.6780     0.3590    -0.9270 hc         1 MY8       0.058700
     41 H31C        -6.3960    -3.9710     0.8720 hc         1 MY8       0.036700
     42 H32C        -7.0160    -4.4330    -0.7080 hc         1 MY8       0.036700
     43 H33C        -5.3480    -3.9040    -0.5440 hc         1 MY8       0.036700
     44 H51C        -7.7200     0.1270     1.9480 hc         1 MY8       0.038033
     45 H52C        -8.1790     1.3890     0.8060 hc         1 MY8       0.038033
     46 H53C        -8.6260    -0.2790     0.4900 hc         1 MY8       0.038033
     47 H6          -5.2860     1.1220     1.7090 ha         1 MY8       0.133000
     48 H7          -4.9610     1.9750    -1.2080 ha         1 MY8       0.120000
     49 H8          -3.3690     2.5700     1.3920 ha         1 MY8       0.129000
     50 H9          -3.0410     3.4640    -1.5160 ha         1 MY8       0.126000
     51 H10         -1.3720     4.9500    -0.4180 h1         1 MY8       0.034700
     52 H2          -1.9070     4.3380     1.7660 ho         1 MY8       0.406000
     53 H11          0.6150     3.4480    -0.3280 hc         1 MY8       0.061700
     54 H121        -0.2650     4.5840    -2.3780 hc         1 MY8       0.035033
     55 H122         0.6240     3.1180    -2.7380 hc         1 MY8       0.035033
     56 H123        -1.1330     3.1110    -2.8130 hc         1 MY8       0.035033
     57 H131        -0.5250     1.4530     0.5420 hc         1 MY8       0.051200
     58 H132        -1.4210     1.2580    -0.9350 hc         1 MY8       0.051200
     59 H14          1.5570     1.4080    -1.2010 hc         1 MY8       0.069700
     60 H151         0.1940     1.0420    -3.2280 hc         1 MY8       0.034033
     61 H152         1.1590    -0.3880    -2.9160 hc         1 MY8       0.034033
     62 H153        -0.5610    -0.3690    -2.5170 hc         1 MY8       0.034033
     63 H16          1.2240     0.0350     0.8300 h1         1 MY8       0.051700
     64 H25          0.0520    -2.0090    -1.1140 hc         1 MY8       0.067700
     65 H17          3.2770    -0.9680     1.2050 h2         1 MY8       0.027700
     66 H24          4.8270    -1.0030    -1.4250 h1         1 MY8       0.051700
     67 H18          4.5600     0.7350     2.0840 h1         1 MY8       0.032700
     68 H191         3.9490     3.0630     1.4670 hc         1 MY8       0.046033
     69 H192         5.6710     2.9190     1.8120 hc         1 MY8       0.046033
     70 H193         5.1180     3.0320     0.1400 hc         1 MY8       0.046033
     71 H201         6.3420     0.8900    -0.3800 hc         1 MY8       0.056200
     72 H202         6.8790     0.6780     1.2810 hc         1 MY8       0.056200
     73 H21          5.6880    -1.4640     1.4570 h1         1 MY8       0.064700
     74 H221         8.0560    -0.3510    -1.2740 h1         1 MY8       0.029533
     75 H222         8.3640    -2.0500    -1.6270 h1         1 MY8       0.029533
     76 H223         6.8160    -1.3410    -2.0540 h1         1 MY8       0.029533
     77 H231         7.7270    -2.2690     1.9110 h1         1 MY8       0.029533
     78 H232         8.9160    -2.5180     0.6350 h1         1 MY8       0.029533
     79 H233         8.5840    -0.8860     1.2160 h1         1 MY8       0.029533
     80 H5           3.7240    -2.9470    -1.0030 ho         1 MY8       0.412000
     81 H261         0.9250    -2.3130     1.8090 hc         1 MY8       0.041367
     82 H262         0.0910    -3.5380     0.8560 hc         1 MY8       0.041367
     83 H263         1.7220    -3.0460     0.4170 hc         1 MY8       0.041367
     84 H27         -1.1640    -0.8740     1.4740 ha         1 MY8       0.140000
     85 H28         -2.3950    -1.8470    -1.1550 ha         1 MY8       0.147000
@<TRIPOS>BOND
     1     1     2 1   
     2     1    35 1   
     3     2     3 1   
     4     2     5 1   
     5     2    37 1   
     6     3     4 1   
     7     3    38 1   
     8     3    39 1   
     9     4    41 1   
    10     4    42 1   
    11     4    43 1   
    12     5     6 1   
    13     5     7 1   
    14     5    40 1   
    15     6    44 1   
    16     6    45 1   
    17     6    46 1   
    18     7     8 2   
    19     7    47 1   
    20     8     9 1   
    21     8    48 1   
    22     9    10 2   
    23     9    49 1   
    24    10    11 1   
    25    10    50 1   
    26    11    12 1   
    27    11    13 1   
    28    11    51 1   
    29    12    52 1   
    30    13    14 1   
    31    13    15 1   
    32    13    53 1   
    33    14    54 1   
    34    14    55 1   
    35    14    56 1   
    36    15    16 1   
    37    15    57 1   
    38    15    58 1   
    39    16    17 1   
    40    16    18 1   
    41    16    59 1   
    42    17    60 1   
    43    17    61 1   
    44    17    62 1   
    45    18    19 1   
    46    18    31 1   
    47    18    63 1   
    48    19    20 1   
    49    20    21 1   
    50    20    29 1   
    51    20    65 1   
    52    21    22 1   
    53    22    23 1   
    54    22    24 1   
    55    22    67 1   
    56    23    68 1   
    57    23    69 1   
    58    23    70 1   
    59    24    25 1   
    60    24    71 1   
    61    24    72 1   
    62    25    26 1   
    63    25    29 1   
    64    25    73 1   
    65    26    27 1   
    66    26    28 1   
    67    27    74 1   
    68    27    75 1   
    69    27    76 1   
    70    28    77 1   
    71    28    78 1   
    72    28    79 1   
    73    29    30 1   
    74    29    66 1   
    75    30    80 1   
    76    31    32 1   
    77    31    33 1   
    78    31    64 1   
    79    32    81 1   
    80    32    82 1   
    81    32    83 1   
    82    33    34 2   
    83    33    84 1   
    84    34    35 1   
    85    34    85 1   
    86    35    36 2   
@<TRIPOS>SUBSTRUCTURE
     1 MY8         1 TEMP              0 ****  ****    0 ROOT
