@<TRIPOS>MOLECULE
MY8
   85    86     1     0     0
SMALL
No Charge or Current Charge


@<TRIPOS>ATOM
      1 O1          -4.8410    -1.4940    -0.1510 os         1 MY8      -0.447100
      2 C1          -6.1710    -1.2860     0.3890 c3         1 MY8       0.180300
      3 C2          -7.1030    -2.2990    -0.3280 c3         1 MY8      -0.078400
      4 C3          -6.7030    -3.7760    -0.1150 c3         1 MY8      -0.088100
      5 C4          -6.5900     0.2120     0.1790 c3         1 MY8      -0.042500
      6 C5          -7.9360     0.5650     0.8540 c3         1 MY8      -0.085100
      7 C6          -5.5110     1.1610     0.6580 c2         1 MY8      -0.205200
      8 C7          -4.7500     1.9430    -0.1320 ce         1 MY8      -0.182000
      9 C8          -3.5640     2.6380     0.3650 ce         1 MY8      -0.173000
     10 C9          -2.7620     3.3800    -0.4290 c2         1 MY8      -0.255200
     11 C10         -1.3960     3.9420    -0.0810 c3         1 MY8       0.208500
     12 O2          -1.2140     3.9550     1.3360 oh         1 MY8      -0.660000
     13 C11         -0.2490     3.1310    -0.7640 c3         1 MY8      -0.049700
     14 C12         -0.1400     3.5190    -2.2600 c3         1 MY8      -0.090100
     15 C13         -0.3660     1.5830    -0.5110 c3         1 MY8      -0.069400
     16 C14          0.7610     0.6810    -1.1060 c3         1 MY8      -0.071700
     17 C15          0.4810     0.2490    -2.5770 c3         1 MY8      -0.083100
     18 C16          1.1090    -0.5500    -0.1950 c3         1 MY8       0.194300
     19 O3           2.3880    -1.0600    -0.6390 os         1 MY8      -0.464000
     20 C17          3.5380    -0.7360     0.1690 c6         1 MY8       0.360300
     21 O4           3.7310     0.6890     0.1990 os         1 MY8      -0.487000
     22 C18          4.7760     1.1040     1.0940 c6         1 MY8       0.185300
     23 C19          4.7720     2.6500     1.1080 c3         1 MY8      -0.088100
     24 C20          6.1290     0.5160     0.6230 c6         1 MY8      -0.148400
     25 C21          6.0470    -1.0370     0.4950 c6         1 MY8       0.192500
     26 N1           7.3500    -1.6490     0.0540 n3         1 MY8      -0.708600
     27 C22          7.7990    -1.2860    -1.3140 c3         1 MY8       0.158600
     28 C23          8.4370    -1.5380     1.0540 c3         1 MY8       0.158600
     29 C24          4.8170    -1.4260    -0.4060 c6         1 MY8       0.158300
     30 O5           4.6300    -2.8610    -0.5130 oh         1 MY8      -0.697000
     31 C25          0.0860    -1.7410    -0.1880 c3         1 MY8      -0.052500
     32 C26          0.6510    -2.9970     0.5220 c3         1 MY8      -0.089100
     33 C27         -1.2440    -1.3980     0.4690 c2         1 MY8      -0.125200
     34 C28         -2.4760    -1.5420    -0.0830 ce         1 MY8      -0.280200
     35 C29         -3.7460    -1.3140     0.6600 c          1 MY8       0.604300
     36 O6          -3.7910    -1.0380     1.8510 o          1 MY8      -0.502000
     37 HA          -6.1980    -1.5160     1.4630 h1         1 MY8       0.067700
     38 H21C        -8.1280    -2.1730     0.0380 hc         1 MY8       0.049200
     39 H22C        -7.1210    -2.0820    -1.4030 hc         1 MY8       0.049200
     40 H4          -6.7280     0.3600    -0.9000 hc         1 MY8       0.058700
     41 H31C        -6.6780    -4.0210     0.9530 hc         1 MY8       0.036700
     42 H32C        -7.4280    -4.4400    -0.6020 hc         1 MY8       0.036700
     43 H33C        -5.7140    -3.9830    -0.5420 hc         1 MY8       0.036700
     44 H51C        -7.8980     0.3580     1.9310 hc         1 MY8       0.038033
     45 H52C        -8.1620     1.6300     0.7200 hc         1 MY8       0.038033
     46 H53C        -8.7640    -0.0050     0.4200 hc         1 MY8       0.038033
     47 H6          -5.3050     1.0970     1.7280 ha         1 MY8       0.183000
     48 H7          -4.9350     1.9880    -1.2080 ha         1 MY8       0.170000
     49 H8          -3.2860     2.4320     1.4010 ha         1 MY8       0.179000
     50 H9          -3.0340     3.5420    -1.4720 ha         1 MY8       0.176000
     51 H10         -1.3490     4.9780    -0.4450 h1         1 MY8       0.034700
     52 H2          -1.9820     4.4410     1.7030 ho         1 MY8       0.445000
     53 H11          0.6880     3.4630    -0.2980 hc         1 MY8       0.061700
     54 H121        -0.2000     4.6060    -2.3870 hc         1 MY8       0.035033
     55 H122         0.8260     3.2070    -2.6730 hc         1 MY8       0.035033
     56 H123        -0.9450     3.0620    -2.8470 hc         1 MY8       0.035033
     57 H131        -0.3920     1.4370     0.5750 hc         1 MY8       0.051200
     58 H132        -1.3310     1.2160    -0.8810 hc         1 MY8       0.051200
     59 H14          1.6630     1.3030    -1.1330 hc         1 MY8       0.069700
     60 H151         0.4830     1.0970    -3.2670 hc         1 MY8       0.034033
     61 H152         1.2480    -0.4490    -2.9320 hc         1 MY8       0.034033
     62 H153        -0.4930    -0.2450    -2.6640 hc         1 MY8       0.034033
     63 H16          1.1990    -0.1930     0.8410 h1         1 MY8       0.051700
     64 H25         -0.0990    -2.0380    -1.2270 hc         1 MY8       0.067700
     65 H17          3.3620    -1.0990     1.1920 h2         1 MY8       0.027700
     66 H24          4.9790    -1.0060    -1.4080 h1         1 MY8       0.051700
     67 H18          4.5430     0.7430     2.1070 h1         1 MY8       0.032700
     68 H191         3.8010     3.0360     1.4390 hc         1 MY8       0.046033
     69 H192         5.5350     3.0380     1.7930 hc         1 MY8       0.046033
     70 H193         4.9760     3.0590     0.1110 hc         1 MY8       0.046033
     71 H201         6.3990     0.9660    -0.3410 hc         1 MY8       0.056200
     72 H202         6.9110     0.8030     1.3380 hc         1 MY8       0.056200
     73 H21          5.8170    -1.4240     1.5000 h1         1 MY8       0.064700
     74 H221         8.0640    -0.2230    -1.3760 h1         1 MY8       0.029533
     75 H222         8.6870    -1.8700    -1.5920 h1         1 MY8       0.029533
     76 H223         7.0230    -1.4960    -2.0600 h1         1 MY8       0.029533
     77 H231         8.0940    -1.8720     2.0420 h1         1 MY8       0.029533
     78 H232         9.2920    -2.1640     0.7660 h1         1 MY8       0.029533
     79 H233         8.7920    -0.5020     1.1420 h1         1 MY8       0.029533
     80 H5           3.7500    -2.9770    -0.9400 ho         1 MY8       0.511000
     81 H261         0.9470    -2.7630     1.5520 hc         1 MY8       0.041367
     82 H262        -0.1040    -3.7910     0.5560 hc         1 MY8       0.041367
     83 H263         1.5240    -3.3980    -0.0060 hc         1 MY8       0.041367
     84 H27         -1.1500    -1.0700     1.5080 ha         1 MY8       0.190000
     85 H28         -2.5930    -1.8740    -1.1120 ha         1 MY8       0.197000
@<TRIPOS>BOND
     1     1     2 1   
     2     1    35 1   
     3     2     3 1   
     4     2     5 1   
     5     2    37 1   
     6     3     4 1   
     7     3    38 1   
     8     3    39 1   
     9     4    41 1   
    10     4    42 1   
    11     4    43 1   
    12     5     6 1   
    13     5     7 1   
    14     5    40 1   
    15     6    44 1   
    16     6    45 1   
    17     6    46 1   
    18     7     8 2   
    19     7    47 1   
    20     8     9 1   
    21     8    48 1   
    22     9    10 2   
    23     9    49 1   
    24    10    11 1   
    25    10    50 1   
    26    11    12 1   
    27    11    13 1   
    28    11    51 1   
    29    12    52 1   
    30    13    14 1   
    31    13    15 1   
    32    13    53 1   
    33    14    54 1   
    34    14    55 1   
    35    14    56 1   
    36    15    16 1   
    37    15    57 1   
    38    15    58 1   
    39    16    17 1   
    40    16    18 1   
    41    16    59 1   
    42    17    60 1   
    43    17    61 1   
    44    17    62 1   
    45    18    19 1   
    46    18    31 1   
    47    18    63 1   
    48    19    20 1   
    49    20    21 1   
    50    20    29 1   
    51    20    65 1   
    52    21    22 1   
    53    22    23 1   
    54    22    24 1   
    55    22    67 1   
    56    23    68 1   
    57    23    69 1   
    58    23    70 1   
    59    24    25 1   
    60    24    71 1   
    61    24    72 1   
    62    25    26 1   
    63    25    29 1   
    64    25    73 1   
    65    26    27 1   
    66    26    28 1   
    67    27    74 1   
    68    27    75 1   
    69    27    76 1   
    70    28    77 1   
    71    28    78 1   
    72    28    79 1   
    73    29    30 1   
    74    29    66 1   
    75    30    80 1   
    76    31    32 1   
    77    31    33 1   
    78    31    64 1   
    79    32    81 1   
    80    32    82 1   
    81    32    83 1   
    82    33    34 2   
    83    33    84 1   
    84    34    35 1   
    85    34    85 1   
    86    35    36 2   
@<TRIPOS>SUBSTRUCTURE
     1 MY8         1 TEMP              0 ****  ****    0 ROOT
