@<TRIPOS>MOLECULE
MY9
   86    89     1     0     0
SMALL
abcg2


@<TRIPOS>ATOM
      1 C1          -9.7070    -1.3360     1.7780 ca         1 MY9      -0.068500
      2 C2         -10.1720    -0.3500     0.9120 ca         1 MY9      -0.119300
      3 C3         -11.5270    -0.3180     0.6050 ca         1 MY9      -0.068500
      4 C4         -12.4090    -1.2440     1.1440 ca         1 MY9      -0.149000
      5 C5         -11.9100    -2.2100     1.9950 ca         1 MY9       0.176000
      6 C6         -10.5700    -2.2750     2.3230 ca         1 MY9      -0.149000
      7 C7          -9.2440     0.7060     0.3520 c3         1 MY9       0.166000
      8 N1          -7.9850     0.1490    -0.1070 ns         1 MY9      -0.505900
      9 C8          -7.8990    -0.6290    -1.2030 c          1 MY9       0.614700
     10 C9          -6.5300    -1.1470    -1.5120 ca         1 MY9      -0.151600
     11 C10         -5.3890    -0.4120    -1.2120 ca         1 MY9      -0.043000
     12 C11         -4.1360    -0.9320    -1.4940 ca         1 MY9      -0.149600
     13 C12         -4.0160    -2.1830    -2.0800 ca         1 MY9      -0.095000
     14 C13         -5.1560    -2.9000    -2.4260 ca         1 MY9       0.216000
     15 C14         -6.4120    -2.3790    -2.1480 ca         1 MY9      -0.004000
     16 N2          -5.0480    -4.1490    -3.0970 nh         1 MY9      -0.733300
     17 S1          -5.2060    -5.5140    -2.1480 s6         1 MY9       1.196100
     18 C15         -3.6980    -5.6270    -1.2080 c3         1 MY9      -0.379100
     19 C16         -4.0870    -4.2330    -4.1980 c3         1 MY9       0.178100
     20 C17         -2.9120    -0.1280    -1.1880 c          1 MY9       0.625700
     21 O1          -8.8590    -0.8980    -1.9050 o          1 MY9      -0.574100
     22 O2          -5.2680    -6.6460    -3.0560 o          1 MY9      -0.524000
     23 O3          -6.3020    -5.2740    -1.2270 o          1 MY9      -0.524000
     24 O4          -2.6610     0.9030    -1.7960 o          1 MY9      -0.608100
     25 C18         -8.9600     1.7910     1.3830 c3         1 MY9      -0.103100
     26 N3          -2.1620    -0.6440    -0.2130 ns         1 MY9      -0.484900
     27 C19         -0.8950    -0.1170     0.2460 c3         1 MY9       0.125700
     28 C20          0.1820    -0.1950    -0.8520 c3         1 MY9      -0.041100
     29 C21          0.1380    -1.5200    -1.5620 ca         1 MY9      -0.073300
     30 C22          0.5170    -2.6910    -0.9050 ca         1 MY9      -0.109500
     31 C23          0.4020    -3.9260    -1.5260 ca         1 MY9      -0.116000
     32 C24         -0.0870    -4.0120    -2.8250 ca         1 MY9      -0.123000
     33 C25         -0.4520    -2.8520    -3.4950 ca         1 MY9      -0.116000
     34 C26         -0.3420    -1.6180    -2.8650 ca         1 MY9      -0.109500
     35 C27         -0.9810     1.2880     0.8670 c3         1 MY9       0.178300
     36 O5           0.2360     1.4580     1.5480 oh         1 MY9      -0.677000
     37 F1         -12.7530    -3.1180     2.5160 f          1 MY9      -0.179000
     38 C28         -4.2880     2.4170     2.0410 c5         1 MY9       0.337600
     39 N4          -3.4640     1.5990     1.1650 n7         1 MY9      -0.847400
     40 C29         -2.1760     1.4440     1.8260 c5         1 MY9       0.032500
     41 C30         -2.0750     2.6930     2.7020 c          1 MY9       0.527000
     42 N5          -3.2990     3.2140     2.7870 n          1 MY9      -0.422800
     43 O6          -1.0550     3.1280     3.2330 o          1 MY9      -0.565000
     44 C31         -3.6570     4.3240     3.6310 c3         1 MY9       0.097300
     45 C33         -5.0860     1.5330     2.9970 c3         1 MY9      -0.100600
     46 H1          -8.6550    -1.3890     2.0340 ha         1 MY9       0.113500
     47 H3         -11.9060     0.4400    -0.0700 ha         1 MY9       0.113500
     48 H4         -13.4630    -1.2180     0.8970 ha         1 MY9       0.132500
     49 H6         -10.2040    -3.0440     2.9910 ha         1 MY9       0.132500
     50 H7          -9.7340     1.1690    -0.5080 h1         1 MY9       0.077700
     51 HN1         -7.2020     0.1790     0.5260 hn         1 MY9       0.311500
     52 H10         -5.4590     0.5740    -0.7730 ha         1 MY9       0.130000
     53 H12         -3.0290    -2.5820    -2.2890 ha         1 MY9       0.130000
     54 H14         -7.2980    -2.9310    -2.4310 ha         1 MY9       0.162000
     55 H151        -2.8420    -5.6670    -1.8790 h1         1 MY9       0.101033
     56 H152        -3.6210    -4.7730    -0.5400 h1         1 MY9       0.101033
     57 H153        -3.7430    -6.5450    -0.6240 h1         1 MY9       0.101033
     58 H161        -3.0480    -4.3160    -3.8690 h1         1 MY9       0.057700
     59 H162        -4.1830    -3.3290    -4.7950 h1         1 MY9       0.057700
     60 H163        -4.3220    -5.0810    -4.8340 h1         1 MY9       0.057700
     61 H181        -8.4290     1.3900     2.2500 hc         1 MY9       0.043367
     62 H182        -8.3620     2.5940     0.9510 hc         1 MY9       0.043367
     63 H183        -9.8930     2.2210     1.7420 hc         1 MY9       0.043367
     64 HN3         -2.5140    -1.4550     0.2670 hn         1 MY9       0.322500
     65 H19         -0.6020    -0.7870     1.0590 h1         1 MY9       0.060700
     66 H201         1.1580    -0.0440    -0.3880 hc         1 MY9       0.074200
     67 H202         0.0400     0.6150    -1.5680 hc         1 MY9       0.074200
     68 H22          0.9010    -2.6370     0.1080 ha         1 MY9       0.119000
     69 H23          0.6950    -4.8240    -0.9980 ha         1 MY9       0.113500
     70 H24         -0.1750    -4.9740    -3.3120 ha         1 MY9       0.112000
     71 H25         -0.8240    -2.9050    -4.5110 ha         1 MY9       0.113500
     72 H26         -0.6420    -0.7180    -3.3890 ha         1 MY9       0.119000
     73 H27         -1.0900     2.0380     0.0680 h1         1 MY9       0.057700
     74 HO5          0.1280     2.1900     2.1790 ho         1 MY9       0.490000
     75 HN4         -3.3160     2.1110     0.3010 hn         1 MY9       0.437000
     76 H29         -2.1940     0.5750     2.5000 h1         1 MY9       0.096700
     77 H311        -2.7590     4.7400     4.0800 h1         1 MY9       0.048367
     78 H312        -4.3280     4.0100     4.4320 h1         1 MY9       0.048367
     79 H313        -4.1490     5.1070     3.0550 h1         1 MY9       0.048367
     80 H321        -4.6440     3.9860     0.5860 hc         1 MY9       0.050033
     81 H322        -5.8430     2.6890     0.5840 hc         1 MY9       0.050033
     82 H323        -5.8710     3.8930     1.8600 hc         1 MY9       0.050033
     83 H331        -5.7560     0.8860     2.4290 hc         1 MY9       0.050033
     84 H332        -4.4310     0.8930     3.5890 hc         1 MY9       0.050033
     85 H333        -5.6950     2.1250     3.6800 hc         1 MY9       0.050033
     86 C32         -5.2100     3.3050     1.2240 c3         1 MY9      -0.100600
@<TRIPOS>BOND
     1     1     2 ar  
     2     1     6 ar  
     3     1    46 1   
     4     2     3 ar  
     5     2     7 1   
     6     3     4 ar  
     7     3    47 1   
     8     4     5 ar  
     9     4    48 1   
    10     5     6 ar  
    11     5    37 1   
    12     6    49 1   
    13     7     8 1   
    14     7    25 1   
    15     7    50 1   
    16     8     9 1   
    17     8    51 1   
    18     9    10 1   
    19     9    21 2   
    20    10    11 ar  
    21    10    15 ar  
    22    11    12 ar  
    23    11    52 1   
    24    12    13 ar  
    25    12    20 1   
    26    13    14 ar  
    27    13    53 1   
    28    14    15 ar  
    29    14    16 1   
    30    15    54 1   
    31    16    17 1   
    32    16    19 1   
    33    17    18 1   
    34    17    22 2   
    35    17    23 2   
    36    18    55 1   
    37    18    56 1   
    38    18    57 1   
    39    19    58 1   
    40    19    59 1   
    41    19    60 1   
    42    20    24 2   
    43    20    26 1   
    44    25    61 1   
    45    25    62 1   
    46    25    63 1   
    47    26    27 1   
    48    26    64 1   
    49    27    28 1   
    50    27    35 1   
    51    27    65 1   
    52    28    29 1   
    53    28    66 1   
    54    28    67 1   
    55    29    30 ar  
    56    29    34 ar  
    57    30    31 ar  
    58    30    68 1   
    59    31    32 ar  
    60    31    69 1   
    61    32    33 ar  
    62    32    70 1   
    63    33    34 ar  
    64    33    71 1   
    65    34    72 1   
    66    35    36 1   
    67    35    40 1   
    68    35    73 1   
    69    36    74 1   
    70    38    39 1   
    71    38    42 1   
    72    38    45 1   
    73    38    86 1   
    74    39    40 1   
    75    39    75 1   
    76    40    41 1   
    77    40    76 1   
    78    41    42 1   
    79    41    43 2   
    80    42    44 1   
    81    44    77 1   
    82    44    78 1   
    83    44    79 1   
    84    45    83 1   
    85    45    84 1   
    86    45    85 1   
    87    80    86 1   
    88    81    86 1   
    89    82    86 1   
@<TRIPOS>SUBSTRUCTURE
     1 MY9         1 TEMP              0 ****  ****    0 ROOT
