@<TRIPOS>MOLECULE
MY9
   86    89     1     0     0
SMALL
No Charge or Current Charge


@<TRIPOS>ATOM
      1 C1          -9.7110     2.1110    -0.2240 ca         1 MY9      -0.068500
      2 C2         -10.2920     0.8270    -0.1340 ca         1 MY9      -0.119300
      3 C3         -11.0590     0.4960     1.0030 ca         1 MY9      -0.068500
      4 C4         -11.2480     1.4370     2.0310 ca         1 MY9      -0.149000
      5 C5         -10.6700     2.7100     1.9280 ca         1 MY9       0.176000
      6 C6          -9.9020     3.0500     0.8050 ca         1 MY9      -0.149000
      7 C7         -10.0820    -0.2060    -1.2380 c3         1 MY9       0.166000
      8 N1          -8.6780    -0.6040    -1.2760 ns         1 MY9      -0.505900
      9 C8          -8.2030    -1.7880    -1.7960 c          1 MY9       0.614700
     10 C9          -6.7060    -2.0030    -1.7340 ca         1 MY9      -0.151600
     11 C10         -5.8210    -1.0170    -1.2360 ca         1 MY9      -0.043000
     12 C11         -4.4310    -1.2530    -1.1780 ca         1 MY9      -0.149600
     13 C12         -3.9250    -2.4870    -1.6470 ca         1 MY9      -0.095000
     14 C13         -4.7850    -3.4750    -2.1530 ca         1 MY9       0.216000
     15 C14         -6.1690    -3.2260    -2.1920 ca         1 MY9      -0.004000
     16 N2          -4.2510    -4.6860    -2.6340 nh         1 MY9      -0.733300
     17 S1          -4.5470    -6.1520    -1.7620 s6         1 MY9       1.196100
     18 C15         -3.8420    -5.8370    -0.1540 c3         1 MY9      -0.379100
     19 C16         -3.1280    -4.6850    -3.5930 c3         1 MY9       0.178100
     20 C17         -3.5140    -0.1730    -0.6560 c          1 MY9       0.625700
     21 O1          -8.9580    -2.6200    -2.2770 o          1 MY9      -0.574100
     22 O2          -3.7710    -7.2130    -2.4100 o          1 MY9      -0.524000
     23 O3          -5.9990    -6.2840    -1.6170 o          1 MY9      -0.524000
     24 O4          -3.8470     1.0040    -0.6320 o          1 MY9      -0.608100
     25 C18        -10.5600     0.2970    -2.6150 c3         1 MY9      -0.103100
     26 N3          -2.2670    -0.5960    -0.2510 ns         1 MY9      -0.484900
     27 C19         -1.1050     0.2610     0.0340 c3         1 MY9       0.125700
     28 C20         -0.5580     0.8450    -1.2990 c3         1 MY9      -0.041100
     29 C21         -0.4800    -0.2030    -2.4090 ca         1 MY9      -0.073300
     30 C22          0.5050    -1.2090    -2.3660 ca         1 MY9      -0.109500
     31 C23          0.5490    -2.2020    -3.3600 ca         1 MY9      -0.116000
     32 C24         -0.3930    -2.1960    -4.4030 ca         1 MY9      -0.123000
     33 C25         -1.3770    -1.1950    -4.4520 ca         1 MY9      -0.116000
     34 C26         -1.4200    -0.2010    -3.4600 ca         1 MY9      -0.109500
     35 C27         -1.3320     1.3520     1.1410 c3         1 MY9       0.178300
     36 O5          -0.0870     2.0350     1.3840 oh         1 MY9      -0.677000
     37 F1         -10.8520     3.6130     2.9170 f          1 MY9      -0.179000
     38 C28         -3.8290     0.4340     3.8270 c5         1 MY9       0.337600
     39 N4          -3.2990     0.2780     2.4580 n7         1 MY9      -0.847400
     40 C29         -1.9020     0.8270     2.5060 c5         1 MY9       0.032500
     41 C30         -1.9610     1.9380     3.5640 c          1 MY9       0.527000
     42 N5          -3.1250     1.6510     4.2690 n          1 MY9      -0.422800
     43 O6          -1.2280     2.9060     3.7370 o          1 MY9      -0.565000
     44 C31         -3.5420     2.5070     5.3990 c3         1 MY9       0.097300
     45 C33         -3.4760    -0.7870     4.7070 c3         1 MY9      -0.100600
     46 H1          -9.1080     2.3840    -1.0880 ha         1 MY9       0.113500
     47 H3         -11.5090    -0.4910     1.0920 ha         1 MY9       0.113500
     48 H4         -11.8400     1.1800     2.9050 ha         1 MY9       0.132500
     49 H6          -9.4540     4.0380     0.7350 ha         1 MY9       0.132500
     50 H7         -10.6760    -1.0970    -0.9890 h1         1 MY9       0.077700
     51 HN1         -8.0000     0.0270    -0.8720 hn         1 MY9       0.311500
     52 H10         -6.1970    -0.0600    -0.8830 ha         1 MY9       0.130000
     53 H12         -2.8570    -2.6860    -1.6450 ha         1 MY9       0.130000
     54 H14         -6.8260    -3.9900    -2.5990 ha         1 MY9       0.162000
     55 H151        -2.7810    -5.6110    -0.3000 h1         1 MY9       0.101033
     56 H152        -4.3740    -4.9850     0.2800 h1         1 MY9       0.101033
     57 H153        -3.9780    -6.7410     0.4480 h1         1 MY9       0.101033
     58 H161        -2.1750    -4.8700    -3.0800 h1         1 MY9       0.057700
     59 H162        -3.0600    -3.7160    -4.1060 h1         1 MY9       0.057700
     60 H163        -3.2730    -5.4550    -4.3620 h1         1 MY9       0.057700
     61 H181        -9.9590     1.1480    -2.9580 hc         1 MY9       0.043367
     62 H182       -10.4840    -0.4980    -3.3660 hc         1 MY9       0.043367
     63 H183       -11.6080     0.6140    -2.5630 hc         1 MY9       0.043367
     64 HN3         -2.1190    -1.5950    -0.2540 hn         1 MY9       0.322500
     65 H19         -0.3310    -0.4140     0.4230 h1         1 MY9       0.060700
     66 H201         0.4350     1.2760    -1.1280 hc         1 MY9       0.074200
     67 H202        -1.1990     1.6780    -1.6110 hc         1 MY9       0.074200
     68 H22          1.2320    -1.2260    -1.5570 ha         1 MY9       0.119000
     69 H23          1.3110    -2.9780    -3.3200 ha         1 MY9       0.113500
     70 H24         -0.3590    -2.9660    -5.1710 ha         1 MY9       0.112000
     71 H25         -2.1080    -1.1910    -5.2580 ha         1 MY9       0.113500
     72 H26         -2.1930     0.5630    -3.5010 ha         1 MY9       0.119000
     73 H27         -2.0560     2.0810     0.7540 h1         1 MY9       0.057700
     74 HO5         -0.2350     2.6070     2.1790 ho         1 MY9       0.490000
     75 HN4         -3.8610     0.8860     1.8500 hn         1 MY9       0.437000
     76 H29         -1.2130     0.0660     2.8970 h1         1 MY9       0.096700
     77 H311        -2.6630     2.8460     5.9620 h1         1 MY9       0.048367
     78 H312        -4.1950     1.9450     6.0790 h1         1 MY9       0.048367
     79 H313        -4.0860     3.3810     5.0180 h1         1 MY9       0.048367
     80 H321        -5.6440     1.4860     3.1840 hc         1 MY9       0.050033
     81 H322        -5.8430    -0.2690     3.3190 hc         1 MY9       0.050033
     82 H323        -5.7880     0.7290     4.7770 hc         1 MY9       0.050033
     83 H331        -3.9230    -1.7040     4.3060 hc         1 MY9       0.050033
     84 H332        -2.3930    -0.9430     4.7650 hc         1 MY9       0.050033
     85 H333        -3.8440    -0.6540     5.7310 hc         1 MY9       0.050033
     86 C32         -5.3630     0.6060     3.7750 c3         1 MY9      -0.100600
@<TRIPOS>BOND
     1     1     2 ar  
     2     1     6 ar  
     3     1    46 1   
     4     2     3 ar  
     5     2     7 1   
     6     3     4 ar  
     7     3    47 1   
     8     4     5 ar  
     9     4    48 1   
    10     5     6 ar  
    11     5    37 1   
    12     6    49 1   
    13     7     8 1   
    14     7    25 1   
    15     7    50 1   
    16     8     9 1   
    17     8    51 1   
    18     9    10 1   
    19     9    21 2   
    20    10    11 ar  
    21    10    15 ar  
    22    11    12 ar  
    23    11    52 1   
    24    12    13 ar  
    25    12    20 1   
    26    13    14 ar  
    27    13    53 1   
    28    14    15 ar  
    29    14    16 1   
    30    15    54 1   
    31    16    17 1   
    32    16    19 1   
    33    17    18 1   
    34    17    22 2   
    35    17    23 2   
    36    18    55 1   
    37    18    56 1   
    38    18    57 1   
    39    19    58 1   
    40    19    59 1   
    41    19    60 1   
    42    20    24 2   
    43    20    26 1   
    44    25    61 1   
    45    25    62 1   
    46    25    63 1   
    47    26    27 1   
    48    26    64 1   
    49    27    28 1   
    50    27    35 1   
    51    27    65 1   
    52    28    29 1   
    53    28    66 1   
    54    28    67 1   
    55    29    30 ar  
    56    29    34 ar  
    57    30    31 ar  
    58    30    68 1   
    59    31    32 ar  
    60    31    69 1   
    61    32    33 ar  
    62    32    70 1   
    63    33    34 ar  
    64    33    71 1   
    65    34    72 1   
    66    35    36 1   
    67    35    40 1   
    68    35    73 1   
    69    36    74 1   
    70    38    39 1   
    71    38    42 1   
    72    38    45 1   
    73    38    86 1   
    74    39    40 1   
    75    39    75 1   
    76    40    41 1   
    77    40    76 1   
    78    41    42 1   
    79    41    43 2   
    80    42    44 1   
    81    44    77 1   
    82    44    78 1   
    83    44    79 1   
    84    45    83 1   
    85    45    84 1   
    86    45    85 1   
    87    80    86 1   
    88    81    86 1   
    89    82    86 1   
@<TRIPOS>SUBSTRUCTURE
     1 MY9         1 TEMP              0 ****  ****    0 ROOT
