@<TRIPOS>MOLECULE
MYB
   64    63     1     0     0
SMALL
No Charge or Current Charge


@<TRIPOS>ATOM
      1 N2          -8.8970     2.2120    -0.1540 n8         1 MYB      -0.967200
      2 C7          -6.4490     2.9100    -0.1650 c3         1 MYB       0.172600
      3 C6          -7.4910     1.7620    -0.3910 c3         1 MYB       0.130500
      4 C13         -1.6350    -2.3150     1.1430 c3         1 MYB      -0.042200
      5 C8          -7.1930     0.4940     0.4840 c3         1 MYB       0.094300
      6 C14         -0.6240    -1.3290     0.5220 c3         1 MYB      -0.072400
      7 C12         -2.9720    -1.6610     1.4210 c2         1 MYB      -0.211200
      8 C11         -4.1320    -1.9860     0.8280 c2         1 MYB      -0.221200
      9 O5          -5.9820    -0.8200    -1.1920 oh         1 MYB      -0.655000
     10 O4          -6.7330     4.0530    -0.9890 oh         1 MYB      -0.634000
     11 OAJ         -8.2850    -0.4440     0.3680 oh         1 MYB      -0.662000
     12 CBN         -5.8610    -0.2370     0.1170 c3         1 MYB       0.144300
     13 C15          0.7480    -1.9740     0.2250 c3         1 MYB      -0.074400
     14 C16          1.7590    -0.9840    -0.3950 c3         1 MYB      -0.076400
     15 C17          3.1300    -1.6280    -0.6930 c3         1 MYB      -0.065400
     16 C18          4.1410    -0.6350    -1.3120 c3         1 MYB      -0.181400
     17 C19          5.4950    -1.3090    -1.5780 c          1 MYB       0.570100
     18 C20          6.5650    -1.1690    -0.4860 c3         1 MYB      -0.180400
     19 C21          7.5080     0.0230    -0.7730 c3         1 MYB      -0.065400
     20 C22          8.5910     0.2080     0.3120 c3         1 MYB      -0.076400
     21 C23          9.5350     1.3980     0.0280 c3         1 MYB      -0.075400
     22 C24         10.6170     1.5840     1.1140 c3         1 MYB      -0.075400
     23 C25         11.5590     2.7690     0.8310 c3         1 MYB      -0.088100
     24 O19          5.7100    -1.9290    -2.6110 o          1 MYB      -0.519100
     25 HN1         -9.4270     1.3630     0.0830 hn         1 MYB       0.394000
     26 HN2         -8.9280     2.7570     0.7130 hn         1 MYB       0.394000
     27 H6          -7.4180     1.4500    -1.4440 h1         1 MYB       0.081700
     28 H71C        -6.4590     3.1990     0.8950 h1         1 MYB       0.016200
     29 H72C        -5.4420     2.5390    -0.3950 h1         1 MYB       0.016200
     30 H4          -6.0750     4.7440    -0.7550 ho         1 MYB       0.437000
     31 H8          -7.1120     0.8310     1.5280 h1         1 MYB       0.071700
     32 H131        -1.7620    -3.1690     0.4650 hc         1 MYB       0.045700
     33 H132        -1.2210    -2.7180     2.0760 hc         1 MYB       0.045700
     34 H141        -1.0430    -0.9260    -0.4080 hc         1 MYB       0.039200
     35 H142        -0.4840    -0.4820     1.2050 hc         1 MYB       0.039200
     36 H12         -2.9390    -0.8720     2.1760 ha         1 MYB       0.164000
     37 HAJ         -8.0290    -1.0250    -0.3840 ho         1 MYB       0.443000
     38 HBN         -5.0460     0.5000     0.1260 h1         1 MYB       0.076700
     39 H11         -4.1670    -2.7860     0.0840 ha         1 MYB       0.174000
     40 H101        -6.2550    -2.1140     1.1620 hc         1 MYB       0.056700
     41 H102        -5.4500    -0.8970     2.1330 hc         1 MYB       0.056700
     42 H5          -5.1120    -1.2250    -1.4020 ho         1 MYB       0.440000
     43 H151         1.1650    -2.3800     1.1550 hc         1 MYB       0.040200
     44 H152         0.6070    -2.8200    -0.4590 hc         1 MYB       0.040200
     45 H161         1.3420    -0.5780    -1.3250 hc         1 MYB       0.036200
     46 H162         1.8990    -0.1380     0.2900 hc         1 MYB       0.036200
     47 H171         3.5460    -2.0360     0.2380 hc         1 MYB       0.052200
     48 H172         2.9900    -2.4750    -1.3770 hc         1 MYB       0.052200
     49 H181         3.7340    -0.2540    -2.2570 hc         1 MYB       0.058200
     50 H182         4.2780     0.1840    -0.5960 hc         1 MYB       0.058200
     51 H201         6.0790    -0.9780     0.4780 hc         1 MYB       0.058200
     52 H202         7.1590    -2.0900    -0.4400 hc         1 MYB       0.058200
     53 H211         7.9950    -0.1270    -1.7460 hc         1 MYB       0.052200
     54 H212         6.9160     0.9440    -0.8510 hc         1 MYB       0.052200
     55 H221         8.1050     0.3590     1.2850 hc         1 MYB       0.035200
     56 H222         9.1840    -0.7110     0.3900 hc         1 MYB       0.035200
     57 H231        10.0220     1.2470    -0.9430 hc         1 MYB       0.039700
     58 H232         8.9420     2.3180    -0.0500 hc         1 MYB       0.039700
     59 H241        10.1330     1.7370     2.0870 hc         1 MYB       0.035700
     60 H242        11.2130     0.6660     1.1940 hc         1 MYB       0.035700
     61 H251        12.0850     2.6280    -0.1210 hc         1 MYB       0.032033
     62 H252        10.9960     3.7090     0.7800 hc         1 MYB       0.032033
     63 H253        12.3080     2.8610     1.6260 hc         1 MYB       0.032033
     64 C10         -5.4740    -1.3440     1.1310 c3         1 MYB      -0.072200
@<TRIPOS>BOND
     1     1     3 1   
     2     1    25 1   
     3     1    26 1   
     4     2     3 1   
     5     2    10 1   
     6     2    28 1   
     7     2    29 1   
     8     3     5 1   
     9     3    27 1   
    10     4     6 1   
    11     4     7 1   
    12     4    32 1   
    13     4    33 1   
    14     5    11 1   
    15     5    12 1   
    16     5    31 1   
    17     6    13 1   
    18     6    34 1   
    19     6    35 1   
    20     7     8 2   
    21     7    36 1   
    22     8    39 1   
    23     8    64 1   
    24     9    12 1   
    25     9    42 1   
    26    10    30 1   
    27    11    37 1   
    28    12    38 1   
    29    12    64 1   
    30    13    14 1   
    31    13    43 1   
    32    13    44 1   
    33    14    15 1   
    34    14    45 1   
    35    14    46 1   
    36    15    16 1   
    37    15    47 1   
    38    15    48 1   
    39    16    17 1   
    40    16    49 1   
    41    16    50 1   
    42    17    18 1   
    43    17    24 2   
    44    18    19 1   
    45    18    51 1   
    46    18    52 1   
    47    19    20 1   
    48    19    53 1   
    49    19    54 1   
    50    20    21 1   
    51    20    55 1   
    52    20    56 1   
    53    21    22 1   
    54    21    57 1   
    55    21    58 1   
    56    22    23 1   
    57    22    59 1   
    58    22    60 1   
    59    23    61 1   
    60    23    62 1   
    61    23    63 1   
    62    40    64 1   
    63    41    64 1   
@<TRIPOS>SUBSTRUCTURE
     1 MYB         1 TEMP              0 ****  ****    0 ROOT
