@<TRIPOS>MOLECULE
MYB
   64    63     1     0     0
SMALL
bcc


@<TRIPOS>ATOM
      1 N2          -8.9790     2.1450     0.6310 n8         1 MYB      -0.856800
      2 C7          -6.6200     2.7050     0.4590 c3         1 MYB       0.149400
      3 C6          -7.7150     1.7370     0.0350 c3         1 MYB       0.130500
      4 C13         -1.9340    -2.7420     0.0470 c3         1 MYB      -0.042200
      5 C8          -7.3400     0.2780     0.3730 c3         1 MYB       0.071100
      6 C14         -0.8790    -1.6970     0.4120 c3         1 MYB      -0.072400
      7 C12         -3.3010    -2.3510     0.5120 c2         1 MYB      -0.161200
      8 C11         -4.3270    -2.0690    -0.2850 c2         1 MYB      -0.171200
      9 O5          -5.9570    -0.0220    -1.6210 oh         1 MYB      -0.592800
     10 O4          -7.0030     4.0200     0.1320 oh         1 MYB      -0.571800
     11 OAJ         -8.4000    -0.5910     0.0140 oh         1 MYB      -0.599800
     12 CBN         -6.0060    -0.1970    -0.2170 c3         1 MYB       0.121100
     13 C15          0.5290    -2.0960    -0.0080 c3         1 MYB      -0.074400
     14 C16          1.5710    -1.0370     0.3280 c3         1 MYB      -0.076400
     15 C17          2.9820    -1.4340    -0.0900 c3         1 MYB      -0.065400
     16 C18          3.9990    -0.3540     0.2400 c3         1 MYB      -0.181400
     17 C19          5.4230    -0.6710    -0.1460 c          1 MYB       0.570100
     18 C20          6.4390     0.3960     0.1800 c3         1 MYB      -0.180400
     19 C21          7.8740     0.0620    -0.1900 c3         1 MYB      -0.065400
     20 C22          8.8330     1.1890     0.1770 c3         1 MYB      -0.076400
     21 C23         10.2800     0.8820    -0.1850 c3         1 MYB      -0.075400
     22 C24         11.2420     2.0090     0.1740 c3         1 MYB      -0.075400
     23 C25         12.6860     1.6910    -0.1880 c3         1 MYB      -0.088100
     24 O19          5.7290    -1.7120    -0.6840 o          1 MYB      -0.519100
     25 HN1         -9.6930     1.4670     0.3960 hn         1 MYB       0.338800
     26 HN2         -8.8990     2.1150     1.6420 hn         1 MYB       0.338800
     27 H6          -7.8260     1.8110    -1.0550 h1         1 MYB       0.081700
     28 H71C        -6.4460     2.5930     1.5410 h1         1 MYB       0.016200
     29 H72C        -5.6810     2.4390    -0.0380 h1         1 MYB       0.016200
     30 H4          -6.2650     4.5990     0.3440 ho         1 MYB       0.398000
     31 H8          -7.2550     0.1990     1.4640 h1         1 MYB       0.071700
     32 H131        -1.9390    -2.8970    -1.0360 hc         1 MYB       0.045700
     33 H132        -1.6510    -3.7000     0.4970 hc         1 MYB       0.045700
     34 H141        -1.1470    -0.7440    -0.0560 hc         1 MYB       0.039200
     35 H142        -0.9020    -1.5210     1.4930 hc         1 MYB       0.039200
     36 H12         -3.4350    -2.2720     1.5900 ha         1 MYB       0.114000
     37 HAJ         -8.5980    -0.4690    -0.9210 ho         1 MYB       0.404000
     38 HBN         -5.2130     0.4380     0.1880 h1         1 MYB       0.076700
     39 H11         -4.1880    -2.1460    -1.3610 ha         1 MYB       0.124000
     40 H101        -6.4490    -2.3090    -0.2060 hc         1 MYB       0.056700
     41 H102        -5.7320    -1.7130     1.2790 hc         1 MYB       0.056700
     42 H5          -6.4520    -0.7310    -2.0420 ho         1 MYB       0.401000
     43 H151         0.8010    -3.0410     0.4740 hc         1 MYB       0.040200
     44 H152         0.5460    -2.2900    -1.0860 hc         1 MYB       0.040200
     45 H161         1.2970    -0.0950    -0.1580 hc         1 MYB       0.036200
     46 H162         1.5510    -0.8390     1.4050 hc         1 MYB       0.036200
     47 H171         3.2600    -2.3680     0.4080 hc         1 MYB       0.052200
     48 H172         2.9980    -1.6430    -1.1630 hc         1 MYB       0.052200
     49 H181         3.7240     0.5910    -0.2430 hc         1 MYB       0.058200
     50 H182         3.9870    -0.1300     1.3130 hc         1 MYB       0.058200
     51 H201         6.1170     1.3180    -0.3170 hc         1 MYB       0.058200
     52 H202         6.3580     0.6160     1.2510 hc         1 MYB       0.058200
     53 H211         8.1850    -0.8570     0.3150 hc         1 MYB       0.052200
     54 H212         7.9450    -0.1380    -1.2630 hc         1 MYB       0.052200
     55 H221         8.5200     2.1110    -0.3260 hc         1 MYB       0.035200
     56 H222         8.7630     1.3910     1.2510 hc         1 MYB       0.035200
     57 H231        10.5960    -0.0370     0.3220 hc         1 MYB       0.039700
     58 H232        10.3510     0.6740    -1.2580 hc         1 MYB       0.039700
     59 H241        10.9270     2.9260    -0.3340 hc         1 MYB       0.035700
     60 H242        11.1700     2.2170     1.2460 hc         1 MYB       0.035700
     61 H251        13.0360     0.8000     0.3360 hc         1 MYB       0.032033
     62 H252        12.7930     1.5050    -1.2590 hc         1 MYB       0.032033
     63 H253        13.3560     2.5110     0.0740 hc         1 MYB       0.032033
     64 C10         -5.6790    -1.6370     0.1900 c3         1 MYB      -0.072200
@<TRIPOS>BOND
     1     1     3 1   
     2     1    25 1   
     3     1    26 1   
     4     2     3 1   
     5     2    10 1   
     6     2    28 1   
     7     2    29 1   
     8     3     5 1   
     9     3    27 1   
    10     4     6 1   
    11     4     7 1   
    12     4    32 1   
    13     4    33 1   
    14     5    11 1   
    15     5    12 1   
    16     5    31 1   
    17     6    13 1   
    18     6    34 1   
    19     6    35 1   
    20     7     8 2   
    21     7    36 1   
    22     8    39 1   
    23     8    64 1   
    24     9    12 1   
    25     9    42 1   
    26    10    30 1   
    27    11    37 1   
    28    12    38 1   
    29    12    64 1   
    30    13    14 1   
    31    13    43 1   
    32    13    44 1   
    33    14    15 1   
    34    14    45 1   
    35    14    46 1   
    36    15    16 1   
    37    15    47 1   
    38    15    48 1   
    39    16    17 1   
    40    16    49 1   
    41    16    50 1   
    42    17    18 1   
    43    17    24 2   
    44    18    19 1   
    45    18    51 1   
    46    18    52 1   
    47    19    20 1   
    48    19    53 1   
    49    19    54 1   
    50    20    21 1   
    51    20    55 1   
    52    20    56 1   
    53    21    22 1   
    54    21    57 1   
    55    21    58 1   
    56    22    23 1   
    57    22    59 1   
    58    22    60 1   
    59    23    61 1   
    60    23    62 1   
    61    23    63 1   
    62    40    64 1   
    63    41    64 1   
@<TRIPOS>SUBSTRUCTURE
     1 MYB         1 TEMP              0 ****  ****    0 ROOT
