@<TRIPOS>MOLECULE
MYC
   33    35     1     0     0
SMALL
abcg2


@<TRIPOS>ATOM
      1 C1           0.6630     0.0430     4.7010 ca         1 MYC      -0.314000
      2 C2          -0.5190    -0.0340     3.9910 ca         1 MYC       0.293100
      3 C3          -0.4960     0.0060     2.5750 ca         1 MYC      -0.382600
      4 C4           0.7410     0.1220     1.9340 ca         1 MYC       0.250100
      5 C5           1.9350     0.1980     2.6280 ca         1 MYC      -0.240000
      6 C6           1.8800     0.1560     4.0180 ca         1 MYC       0.252100
      7 C9          -1.6940    -0.0810     1.7970 c          1 MYC       0.579900
      8 C10         -1.5270    -0.0480     0.3580 cc         1 MYC      -0.060100
      9 C11         -0.2940     0.0840    -0.1900 cd         1 MYC       0.151900
     10 C14          0.0420     0.1110    -1.6140 ca         1 MYC      -0.013800
     11 C15         -0.8220     0.6890    -2.5460 ca         1 MYC      -0.136000
     12 C16         -0.4710     0.7130    -3.8860 ca         1 MYC       0.111100
     13 C17          0.7340     0.1600    -4.3160 ca         1 MYC       0.035100
     14 C18          1.5970    -0.4120    -3.3820 ca         1 MYC       0.111100
     15 C19          1.2560    -0.4300    -2.0380 ca         1 MYC      -0.136000
     16 O12          0.8020     0.1700     0.5970 os         1 MYC      -0.198200
     17 O13         -2.8300    -0.1990     2.2860 o          1 MYC      -0.617100
     18 O23          2.7710    -0.9580    -3.7570 oh         1 MYC      -0.543600
     19 O24          1.1220     0.1560    -5.6100 oh         1 MYC      -0.553100
     20 O25         -1.2380     1.2610    -4.8530 oh         1 MYC      -0.543600
     21 O27         -2.6310    -0.1760    -0.3950 oh         1 MYC      -0.520100
     22 O29          3.0410     0.2270     4.6730 oh         1 MYC      -0.517100
     23 O30         -1.6690    -0.1470     4.6470 oh         1 MYC      -0.532100
     24 H1           0.6410     0.0150     5.7840 ha         1 MYC       0.138000
     25 H5           2.8780     0.2900     2.1080 ha         1 MYC       0.156000
     26 H15         -1.7540     1.1430    -2.2390 ha         1 MYC       0.140000
     27 H19          1.9430    -0.8870    -1.3390 ha         1 MYC       0.140000
     28 HO3          2.8900    -0.8920    -4.7120 ho         1 MYC       0.483000
     29 HO4          0.4310     0.5140    -6.1790 ho         1 MYC       0.493000
     30 HO5         -2.0660     1.5950    -4.4910 ho         1 MYC       0.483000
     31 HO7         -3.3890    -0.2730     0.2010 ho         1 MYC       0.490000
     32 HO9          2.9020     0.1800     5.6270 ho         1 MYC       0.478000
     33 HO0         -2.3970    -0.1930     3.9890 ho         1 MYC       0.521000
@<TRIPOS>BOND
     1     1     2 ar  
     2     1     6 ar  
     3     1    24 1   
     4     2     3 ar  
     5     2    23 1   
     6     3     4 ar  
     7     3     7 1   
     8     4     5 ar  
     9     4    16 1   
    10     5     6 ar  
    11     5    25 1   
    12     6    22 1   
    13     7     8 1   
    14     7    17 2   
    15     8     9 2   
    16     8    21 1   
    17     9    10 1   
    18     9    16 1   
    19    10    11 ar  
    20    10    15 ar  
    21    11    12 ar  
    22    11    26 1   
    23    12    13 ar  
    24    12    20 1   
    25    13    14 ar  
    26    13    19 1   
    27    14    15 ar  
    28    14    18 1   
    29    15    27 1   
    30    18    28 1   
    31    19    29 1   
    32    20    30 1   
    33    21    31 1   
    34    22    32 1   
    35    23    33 1   
@<TRIPOS>SUBSTRUCTURE
     1 MYC         1 TEMP              0 ****  ****    0 ROOT
