@<TRIPOS>MOLECULE
MYC
   33    35     1     0     0
SMALL
No Charge or Current Charge


@<TRIPOS>ATOM
      1 C1           0.6990    -0.0350     4.7700 ca         1 MYC      -0.314000
      2 C2          -0.4990     0.0500     4.0570 ca         1 MYC       0.293100
      3 C3          -0.4950     0.0600     2.6540 ca         1 MYC      -0.382600
      4 C4           0.7230    -0.0170     1.9730 ca         1 MYC       0.250100
      5 C5           1.9260    -0.1030     2.6850 ca         1 MYC      -0.240000
      6 C6           1.9120    -0.1110     4.0810 ca         1 MYC       0.252100
      7 C9          -1.7420     0.1480     1.8530 c          1 MYC       0.579900
      8 C10         -1.5860     0.1600     0.3750 cc         1 MYC      -0.060100
      9 C11         -0.3280     0.0760    -0.2210 cd         1 MYC       0.151900
     10 C14          0.0390     0.1090    -1.6740 ca         1 MYC      -0.013800
     11 C15         -0.9060     0.3620    -2.7030 ca         1 MYC      -0.136000
     12 C16         -0.5240     0.3860    -4.0560 ca         1 MYC       0.111100
     13 C17          0.8160     0.1590    -4.4170 ca         1 MYC       0.035100
     14 C18          1.7670    -0.0880    -3.4150 ca         1 MYC       0.111100
     15 C19          1.3870    -0.1110    -2.0650 ca         1 MYC      -0.136000
     16 O12          0.7700    -0.0130     0.6020 os         1 MYC      -0.198200
     17 O13         -2.8420     0.2100     2.3960 o          1 MYC      -0.617100
     18 O23          3.0680    -0.3070    -3.7650 oh         1 MYC      -0.543600
     19 O24          1.1850     0.1830    -5.7390 oh         1 MYC      -0.553100
     20 O25         -1.4520     0.6330    -5.0340 oh         1 MYC      -0.543600
     21 O27         -2.7810     0.2360    -0.2760 oh         1 MYC      -0.520100
     22 O29          3.0830    -0.1940     4.7650 oh         1 MYC      -0.517100
     23 O30         -1.6660     0.1220     4.7420 oh         1 MYC      -0.532100
     24 H1           0.6760    -0.0420     5.8560 ha         1 MYC       0.138000
     25 H5           2.8680    -0.1620     2.1490 ha         1 MYC       0.156000
     26 H15         -1.9440     0.5570    -2.4700 ha         1 MYC       0.140000
     27 H19          2.1590    -0.3120    -1.3280 ha         1 MYC       0.140000
     28 HO3          3.0990    -0.2440    -4.7470 ho         1 MYC       0.483000
     29 HO4          0.3670     0.3740    -6.2560 ho         1 MYC       0.493000
     30 HO5         -2.3300     0.7640    -4.6140 ho         1 MYC       0.483000
     31 HO7         -3.4790     0.2710     0.4240 ho         1 MYC       0.490000
     32 HO9          2.8720    -0.1870     5.7220 ho         1 MYC       0.478000
     33 HO0         -2.3690     0.1710     4.0440 ho         1 MYC       0.521000
@<TRIPOS>BOND
     1     1     2 ar  
     2     1     6 ar  
     3     1    24 1   
     4     2     3 ar  
     5     2    23 1   
     6     3     4 ar  
     7     3     7 1   
     8     4     5 ar  
     9     4    16 1   
    10     5     6 ar  
    11     5    25 1   
    12     6    22 1   
    13     7     8 1   
    14     7    17 2   
    15     8     9 2   
    16     8    21 1   
    17     9    10 1   
    18     9    16 1   
    19    10    11 ar  
    20    10    15 ar  
    21    11    12 ar  
    22    11    26 1   
    23    12    13 ar  
    24    12    20 1   
    25    13    14 ar  
    26    13    19 1   
    27    14    15 ar  
    28    14    18 1   
    29    15    27 1   
    30    18    28 1   
    31    19    29 1   
    32    20    30 1   
    33    21    31 1   
    34    22    32 1   
    35    23    33 1   
@<TRIPOS>SUBSTRUCTURE
     1 MYC         1 TEMP              0 ****  ****    0 ROOT
