@<TRIPOS>MOLECULE
MYD
   70    74     1     0     0
SMALL
No Charge or Current Charge


@<TRIPOS>ATOM
      1 C53          1.2800     2.5690    -1.1900 c3         1 MYD       0.155900
      2 O51          1.2840     1.6710    -2.3100 os         1 MYD      -0.343100
      3 C46          0.0860     1.2070    -2.8030 ca         1 MYD       0.165100
      4 C47         -0.6820     2.0320    -3.6640 ca         1 MYD      -0.132300
      5 C52         -0.2060     3.4180    -4.0950 c3         1 MYD      -0.027800
      6 C48         -1.9160     1.5370    -4.1130 ca         1 MYD      -0.081300
      7 C49         -2.9510     2.1910    -4.9980 c5         1 MYD       0.208900
      8 O50         -4.0270     1.2020    -5.0850 os         1 MYD      -0.456100
      9 C42         -3.6900     0.0810    -4.3570 c          1 MYD       0.690700
     10 O43         -4.4060    -0.8990    -4.2270 o          1 MYD      -0.495000
     11 C41         -2.3590     0.2940    -3.7440 ca         1 MYD      -0.260600
     12 C40         -1.6120    -0.5490    -2.9170 ca         1 MYD       0.254100
     13 O31         -2.1140    -1.7610    -2.5520 oh         1 MYD      -0.539100
     14 C39         -0.3600    -0.0920    -2.4340 ca         1 MYD      -0.152300
     15 C38          0.4800    -0.9410    -1.4640 c3         1 MYD      -0.051100
     16 C37          1.7990    -1.4780    -2.0700 c3         1 MYD       0.235600
     17 O36          2.6780    -1.9240    -1.0250 os         1 MYD      -0.599400
     18 P35          2.4120    -3.2950    -0.2220 p5         1 MYD       1.435400
     19 O45          2.4950    -4.4510    -1.1620 o          1 MYD      -0.835500
     20 O30          1.1540    -3.3150     0.5730 o          1 MYD      -0.835500
     21 C34          3.8800    -3.3900     0.7610 c3         1 MYD      -0.793400
     22 P33          3.7250    -2.2200     2.0810 p5         1 MYD       1.441400
     23 O44          4.9400    -2.4360     2.9210 o          1 MYD      -0.832500
     24 O29          2.4800    -2.3740     2.8810 o          1 MYD      -0.832500
     25 O32          3.8500    -0.8250     1.2880 os         1 MYD      -0.585400
     26 C28          4.0230     0.4190     1.9940 c3         1 MYD       0.225600
     27 C27          2.6710     1.0220     2.4970 c5         1 MYD       0.139300
     28 O24          1.5470     0.5530     1.7250 os         1 MYD      -0.413000
     29 C26          2.3020     0.7440     4.0010 c5         1 MYD       0.100300
     30 O25          2.3370     1.9310     4.7930 oh         1 MYD      -0.713000
     31 C22          0.8160     0.2530     3.9380 c5         1 MYD       0.068300
     32 O21          0.0380     0.8020     5.0320 oh         1 MYD      -0.710000
     33 C23          0.3750     0.7430     2.5190 c5         1 MYD       0.325300
     34 N20         -0.7330     0.0500     1.8670 na         1 MYD      -0.293300
     35 C16         -0.9710    -1.3300     1.9150 cc         1 MYD       0.464700
     36 N15         -2.0420    -1.6690     1.1690 nd         1 MYD      -0.536100
     37 C14         -2.4490    -0.4510     0.6220 ca         1 MYD      -0.043600
     38 C19         -1.6720     0.5990     1.0400 ca         1 MYD       0.113500
     39 N18         -1.8830     1.8620     0.6140 nb         1 MYD      -0.194000
     40 C17         -2.9090     2.0220    -0.2570 ca         1 MYD       0.134900
     41 N12         -3.7210     1.0500    -0.7430 nb         1 MYD      -0.294000
     42 C13         -3.4830    -0.1940    -0.2980 ca         1 MYD       0.373900
     43 N11         -4.2360    -1.1900    -0.8550 nv         1 MYD      -1.034900
     44 H531         2.3070     2.8320    -0.9080 h1         1 MYD       0.030367
     45 H532         0.7400     3.4930    -1.4280 h1         1 MYD       0.030367
     46 H533         0.7960     2.1030    -0.3240 h1         1 MYD       0.030367
     47 H521         0.8880     3.4730    -4.1520 hc         1 MYD       0.035367
     48 H522        -0.5870     3.6870    -5.0870 hc         1 MYD       0.035367
     49 H523        -0.5460     4.1850    -3.3890 hc         1 MYD       0.035367
     50 H491        -3.3370     3.1210    -4.5590 h1         1 MYD       0.057700
     51 H492        -2.5580     2.3970    -6.0030 h1         1 MYD       0.057700
     52 H31         -2.9400    -1.5820    -2.0250 ho         1 MYD       0.518000
     53 H381         0.7300    -0.3340    -0.5900 hc         1 MYD       0.055700
     54 H382        -0.1000    -1.7840    -1.0800 hc         1 MYD       0.055700
     55 H371         1.5740    -2.2920    -2.7720 h1         1 MYD       0.021700
     56 H372         2.2910    -0.6800    -2.6400 h1         1 MYD       0.021700
     57 H341         3.9680    -4.3930     1.1790 hc         1 MYD       0.066200
     58 H342         4.7530    -3.1530     0.1530 hc         1 MYD       0.066200
     59 H281         4.7060     0.2980     2.8460 h1         1 MYD       0.016700
     60 H282         4.4860     1.1500     1.3200 h1         1 MYD       0.016700
     61 H27          2.7390     2.1080     2.3500 h1         1 MYD       0.088700
     62 H26          2.9480    -0.0300     4.4400 h1         1 MYD       0.045700
     63 H25          1.4480     1.8890     5.2400 ho         1 MYD       0.500000
     64 H22          0.8010    -0.8440     3.9830 h1         1 MYD       0.075700
     65 H21         -0.8230     0.3100     5.0680 ho         1 MYD       0.499000
     66 H23          0.1180     1.8100     2.5470 h2         1 MYD       0.095700
     67 H16         -0.3410    -2.0150     2.4740 h5         1 MYD       0.141800
     68 H17         -3.0940     3.0340    -0.6110 h5         1 MYD       0.026100
     69 H111        -5.1120    -0.8990    -1.2860 hn         1 MYD       0.467500
     70 H112        -4.3070    -2.0460    -0.3050 hn         1 MYD       0.467500
@<TRIPOS>BOND
     1     1     2 1   
     2     1    44 1   
     3     1    45 1   
     4     1    46 1   
     5     2     3 1   
     6     3     4 ar  
     7     3    14 ar  
     8     4     5 1   
     9     4     6 ar  
    10     5    47 1   
    11     5    48 1   
    12     5    49 1   
    13     6     7 1   
    14     6    11 ar  
    15     7     8 1   
    16     7    50 1   
    17     7    51 1   
    18     8     9 1   
    19     9    10 2   
    20     9    11 1   
    21    11    12 ar  
    22    12    13 1   
    23    12    14 ar  
    24    13    52 1   
    25    14    15 1   
    26    15    16 1   
    27    15    53 1   
    28    15    54 1   
    29    16    17 1   
    30    16    55 1   
    31    16    56 1   
    32    17    18 1   
    33    18    19 1   
    34    18    20 1   
    35    18    21 1   
    36    21    22 1   
    37    21    57 1   
    38    21    58 1   
    39    22    23 1   
    40    22    24 1   
    41    22    25 1   
    42    25    26 1   
    43    26    27 1   
    44    26    59 1   
    45    26    60 1   
    46    27    28 1   
    47    27    29 1   
    48    27    61 1   
    49    28    33 1   
    50    29    30 1   
    51    29    31 1   
    52    29    62 1   
    53    30    63 1   
    54    31    32 1   
    55    31    33 1   
    56    31    64 1   
    57    32    65 1   
    58    33    34 1   
    59    33    66 1   
    60    34    35 1   
    61    34    38 1   
    62    35    36 2   
    63    35    67 1   
    64    36    37 1   
    65    37    38 ar  
    66    37    42 ar  
    67    38    39 ar  
    68    39    40 ar  
    69    40    41 ar  
    70    40    68 1   
    71    41    42 ar  
    72    42    43 1   
    73    43    69 1   
    74    43    70 1   
@<TRIPOS>SUBSTRUCTURE
     1 MYD         1 TEMP              0 ****  ****    0 ROOT
