@<TRIPOS>MOLECULE
MYD
   70    74     1     0     0
SMALL
bcc


@<TRIPOS>ATOM
      1 C53          0.8460     3.0760    -4.3210 c3         1 MYD       0.132700
      2 O51          0.8000     1.6680    -4.5220 os         1 MYD      -0.319900
      3 C46         -0.4510     1.1550    -4.6590 ca         1 MYD       0.165100
      4 C47         -1.0450     1.1750    -5.9270 ca         1 MYD      -0.132300
      5 C52         -0.3640     1.7560    -7.1300 c3         1 MYD      -0.027800
      6 C48         -2.2980     0.6020    -5.9970 ca         1 MYD      -0.081300
      7 C49         -3.2100     0.4480    -7.1700 c5         1 MYD       0.185700
      8 O50         -4.3590    -0.2120    -6.6430 os         1 MYD      -0.432900
      9 C42         -4.2310    -0.4590    -5.3240 c          1 MYD       0.766200
     10 O43         -5.1040    -1.0110    -4.7080 o          1 MYD      -0.570500
     11 C41         -2.9300     0.0520    -4.8980 ca         1 MYD      -0.260600
     12 C40         -2.3280     0.0330    -3.6410 ca         1 MYD       0.254100
     13 O31         -2.9980    -0.5500    -2.6430 oh         1 MYD      -0.500100
     14 C39         -1.0530     0.5980    -3.5180 ca         1 MYD      -0.152300
     15 C38         -0.2770     0.5200    -2.2310 c3         1 MYD      -0.051100
     16 C37          0.6190    -0.7150    -2.2150 c3         1 MYD       0.212400
     17 O36          1.3580    -0.7190    -1.0200 os         1 MYD      -0.576200
     18 P35          2.3160    -2.0430    -0.6960 p5         1 MYD       1.277600
     19 O45          3.4410    -2.0640    -1.6990 o          1 MYD      -0.835500
     20 O30          1.4410    -3.2590    -0.5690 o          1 MYD      -0.835500
     21 C34          2.9080    -1.4800     0.9360 c3         1 MYD      -0.477800
     22 P33          3.3200    -2.8460     2.0680 p5         1 MYD       1.283600
     23 O44          4.3530    -3.7260     1.4190 o          1 MYD      -0.832500
     24 O29          2.0840    -3.4530     2.6820 o          1 MYD      -0.832500
     25 O32          4.1430    -2.0320     3.2740 os         1 MYD      -0.562200
     26 C28          3.5640    -1.7450     4.5190 c3         1 MYD       0.202400
     27 C27          3.3180    -0.2560     4.7050 c5         1 MYD       0.116100
     28 O24          2.4930     0.2670     3.6580 os         1 MYD      -0.366600
     29 C26          2.5680     0.0310     5.9990 c5         1 MYD       0.077100
     30 O25          2.8910     1.3250     6.4390 oh         1 MYD      -0.590800
     31 C22          1.1150    -0.0380     5.5190 c5         1 MYD       0.045100
     32 O21          0.1960     0.6590     6.3050 oh         1 MYD      -0.587800
     33 C23          1.2320     0.6230     4.1460 c5         1 MYD       0.272800
     34 N20          0.2100     0.2190     3.2120 na         1 MYD      -0.264000
     35 C16         -0.0840    -1.0540     2.7880 cc         1 MYD       0.464700
     36 N15         -1.0550    -1.0970     1.9260 nd         1 MYD      -0.536100
     37 C14         -1.4210     0.2110     1.7540 ca         1 MYD      -0.174200
     38 C19         -0.6400     1.0500     2.5400 ca         1 MYD       0.441800
     39 N18         -0.7280     2.3720     2.6000 nb         1 MYD      -0.720000
     40 C17         -1.6730     2.8460     1.8060 ca         1 MYD       0.660900
     41 N12         -2.4950     2.1610     1.0130 nb         1 MYD      -0.820000
     42 C13         -2.3940     0.8360     0.9710 ca         1 MYD       0.702200
     43 N11         -3.2130     0.1370     0.1280 nv         1 MYD      -0.924500
     44 H531         1.8890     3.3410    -4.1590 h1         1 MYD       0.030367
     45 H532         0.4740     3.6250    -5.1890 h1         1 MYD       0.030367
     46 H533         0.2650     3.3730    -3.4440 h1         1 MYD       0.030367
     47 H521         0.7120     1.5930    -7.1030 hc         1 MYD       0.035367
     48 H522        -0.7430     1.3080    -8.0480 hc         1 MYD       0.035367
     49 H523        -0.5290     2.8330    -7.2070 hc         1 MYD       0.035367
     50 H491        -3.5130     1.4060    -7.5990 h1         1 MYD       0.057700
     51 H492        -2.7790    -0.1630    -7.9660 h1         1 MYD       0.057700
     52 H31         -2.7140    -0.2700    -1.7520 ho         1 MYD       0.479000
     53 H381         0.3370     1.4110    -2.0940 hc         1 MYD       0.055700
     54 H382        -0.9350     0.4870    -1.3610 hc         1 MYD       0.055700
     55 H371        -0.0020    -1.6150    -2.3020 h1         1 MYD       0.021700
     56 H372         1.2780    -0.6920    -3.0920 h1         1 MYD       0.021700
     57 H341         3.7870    -0.8450     0.8010 hc         1 MYD       0.066200
     58 H342         2.1430    -0.8590     1.4000 hc         1 MYD       0.066200
     59 H281         2.6350    -2.3050     4.6640 h1         1 MYD       0.016700
     60 H282         4.2520    -2.0630     5.3100 h1         1 MYD       0.016700
     61 H27          4.2720     0.2790     4.6810 h1         1 MYD       0.088700
     62 H26          2.7760    -0.7230     6.7700 h1         1 MYD       0.045700
     63 H25          2.2000     1.6110     7.0480 ho         1 MYD       0.401000
     64 H22          0.8290    -1.0910     5.4020 h1         1 MYD       0.075700
     65 H21         -0.0940     0.0880     7.0240 ho         1 MYD       0.400000
     66 H23          1.1320     1.7090     4.2450 h2         1 MYD       0.095700
     67 H16          0.4890    -1.9140     3.1110 h5         1 MYD       0.141800
     68 H17         -1.8000     3.9220     1.7980 h5         1 MYD       0.026100
     69 H111        -4.0660     0.6210    -0.1200 hn         1 MYD       0.412300
     70 H112        -3.3800    -0.8240     0.3910 hn         1 MYD       0.412300
@<TRIPOS>BOND
     1     1     2 1   
     2     1    44 1   
     3     1    45 1   
     4     1    46 1   
     5     2     3 1   
     6     3     4 ar  
     7     3    14 ar  
     8     4     5 1   
     9     4     6 ar  
    10     5    47 1   
    11     5    48 1   
    12     5    49 1   
    13     6     7 1   
    14     6    11 ar  
    15     7     8 1   
    16     7    50 1   
    17     7    51 1   
    18     8     9 1   
    19     9    10 2   
    20     9    11 1   
    21    11    12 ar  
    22    12    13 1   
    23    12    14 ar  
    24    13    52 1   
    25    14    15 1   
    26    15    16 1   
    27    15    53 1   
    28    15    54 1   
    29    16    17 1   
    30    16    55 1   
    31    16    56 1   
    32    17    18 1   
    33    18    19 1   
    34    18    20 1   
    35    18    21 1   
    36    21    22 1   
    37    21    57 1   
    38    21    58 1   
    39    22    23 1   
    40    22    24 1   
    41    22    25 1   
    42    25    26 1   
    43    26    27 1   
    44    26    59 1   
    45    26    60 1   
    46    27    28 1   
    47    27    29 1   
    48    27    61 1   
    49    28    33 1   
    50    29    30 1   
    51    29    31 1   
    52    29    62 1   
    53    30    63 1   
    54    31    32 1   
    55    31    33 1   
    56    31    64 1   
    57    32    65 1   
    58    33    34 1   
    59    33    66 1   
    60    34    35 1   
    61    34    38 1   
    62    35    36 2   
    63    35    67 1   
    64    36    37 1   
    65    37    38 ar  
    66    37    42 ar  
    67    38    39 ar  
    68    39    40 ar  
    69    40    41 ar  
    70    40    68 1   
    71    41    42 ar  
    72    42    43 1   
    73    43    69 1   
    74    43    70 1   
@<TRIPOS>SUBSTRUCTURE
     1 MYD         1 TEMP              0 ****  ****    0 ROOT
