@<TRIPOS>MOLECULE
MYE
   56    56     1     0     0
SMALL
bcc


@<TRIPOS>ATOM
      1 C2          -1.0690    -6.3690     5.9120 c3         1 MYE      -0.071400
      2 C3          -1.5070    -4.9400     5.6120 c3         1 MYE      -0.083400
      3 C4          -1.7490    -4.1220     6.8740 c3         1 MYE      -0.080400
      4 C5          -2.1780    -2.6910     6.5770 c3         1 MYE      -0.016300
      5 N6          -1.1940    -1.9480     5.8230 ns         1 MYE      -0.564900
      6 C7          -1.3600    -1.5610     4.5440 c          1 MYE       0.649100
      7 O8          -2.3760    -1.7520     3.8990 o          1 MYE      -0.593100
      8 C9          -0.1750    -0.7890     3.9600 c3         1 MYE       0.049700
      9 C10         -0.4080     0.7090     4.1840 c3         1 MYE      -0.079400
     10 C11          0.7970     1.6360     3.9660 c3         1 MYE      -0.057700
     11 C12          1.2260     1.7900     2.5090 c3         1 MYE      -0.091100
     12 C13          1.9840     1.2560     4.8480 c3         1 MYE      -0.091100
     13 N14         -0.0190    -1.0850     2.5610 ns         1 MYE      -0.540900
     14 C15          0.3230    -2.3280     2.1720 c          1 MYE       0.754100
     15 O16          0.6510    -3.2190     2.9280 o          1 MYE      -0.598000
     16 O17          0.2850    -2.4500     0.8420 os         1 MYE      -0.427900
     17 C18          0.6370    -3.7300     0.3040 c3         1 MYE       0.206700
     18 C19          0.5180    -3.6280    -1.1850 ca         1 MYE      -0.088300
     19 C20         -0.5930    -4.1300    -1.8500 ca         1 MYE      -0.102500
     20 C21         -0.7080    -4.0310    -3.2300 ca         1 MYE      -0.108000
     21 C22          0.3060    -3.4130    -3.9450 ca         1 MYE      -0.007900
     22 BR2          0.1720    -3.2820    -5.8240 br         1 MYE      -0.096100
     23 C24          1.4280    -2.9030    -3.3060 ca         1 MYE      -0.108000
     24 C25          1.5220    -3.0130    -1.9270 ca         1 MYE      -0.102500
     25 C26         -2.5410    -1.8830     7.8040 c          1 MYE       0.561900
     26 O27         -2.7330    -2.3450     8.8980 o          1 MYE      -0.503100
     27 C1          -0.8390    -7.1820     4.6460 c3         1 MYE      -0.089100
     28 H21A        -0.1500    -6.3500     6.5060 hc         1 MYE       0.035200
     29 H22         -1.8220    -6.8620     6.5340 hc         1 MYE       0.035200
     30 H31         -0.7470    -4.4570     4.9910 hc         1 MYE       0.052200
     31 H32         -2.4230    -4.9590     5.0130 hc         1 MYE       0.052200
     32 H41         -0.8440    -4.1110     7.4910 hc         1 MYE       0.053200
     33 H42         -2.5260    -4.6010     7.4760 hc         1 MYE       0.053200
     34 H5          -3.0900    -2.7070     5.9670 h1         1 MYE       0.102700
     35 HN6         -0.2820    -1.8330     6.2390 hn         1 MYE       0.316500
     36 H9           0.7370    -1.0920     4.4830 h1         1 MYE       0.079700
     37 H101        -0.7340     0.8380     5.2190 hc         1 MYE       0.055200
     38 H102        -1.2460     1.0300     3.5560 hc         1 MYE       0.055200
     39 H11          0.4540     2.6230     4.2950 hc         1 MYE       0.046700
     40 H121         1.9520     2.5990     2.4140 hc         1 MYE       0.036367
     41 H122         0.3790     2.0370     1.8660 hc         1 MYE       0.036367
     42 H123         1.6940     0.8860     2.1190 hc         1 MYE       0.036367
     43 H131         2.4450     0.3190     4.5310 hc         1 MYE       0.036367
     44 H132         2.7560     2.0250     4.8030 hc         1 MYE       0.036367
     45 H133         1.6870     1.1440     5.8930 hc         1 MYE       0.036367
     46 H14         -0.4380    -0.4610     1.8880 hn         1 MYE       0.337500
     47 H181        -0.0300    -4.5010     0.6930 h1         1 MYE       0.059200
     48 H182         1.6590    -3.9910     0.5880 h1         1 MYE       0.059200
     49 H20         -1.3860    -4.6110    -1.2910 ha         1 MYE       0.138500
     50 H21         -1.5800    -4.4310    -3.7280 ha         1 MYE       0.149500
     51 H24          2.2260    -2.4330    -3.8650 ha         1 MYE       0.149500
     52 H25          2.4000    -2.6190    -1.4310 ha         1 MYE       0.138500
     53 H26         -2.6340    -0.7980     7.6110 h4         1 MYE      -0.007800
     54 H11A        -1.7510    -7.2440     4.0480 hc         1 MYE       0.032700
     55 H12         -0.0680    -6.7290     4.0210 hc         1 MYE       0.032700
     56 H13         -0.5220    -8.2000     4.8740 hc         1 MYE       0.032700
@<TRIPOS>BOND
     1     1     2 1   
     2     1    27 1   
     3     1    28 1   
     4     1    29 1   
     5     2     3 1   
     6     2    30 1   
     7     2    31 1   
     8     3     4 1   
     9     3    32 1   
    10     3    33 1   
    11     4     5 1   
    12     4    25 1   
    13     4    34 1   
    14     5     6 1   
    15     5    35 1   
    16     6     7 2   
    17     6     8 1   
    18     8     9 1   
    19     8    13 1   
    20     8    36 1   
    21     9    10 1   
    22     9    37 1   
    23     9    38 1   
    24    10    11 1   
    25    10    12 1   
    26    10    39 1   
    27    11    40 1   
    28    11    41 1   
    29    11    42 1   
    30    12    43 1   
    31    12    44 1   
    32    12    45 1   
    33    13    14 1   
    34    13    46 1   
    35    14    15 2   
    36    14    16 1   
    37    16    17 1   
    38    17    18 1   
    39    17    47 1   
    40    17    48 1   
    41    18    19 ar  
    42    18    24 ar  
    43    19    20 ar  
    44    19    49 1   
    45    20    21 ar  
    46    20    50 1   
    47    21    22 1   
    48    21    23 ar  
    49    23    24 ar  
    50    23    51 1   
    51    24    52 1   
    52    25    26 2   
    53    25    53 1   
    54    27    54 1   
    55    27    55 1   
    56    27    56 1   
@<TRIPOS>SUBSTRUCTURE
     1 MYE         1 TEMP              0 ****  ****    0 ROOT
