@<TRIPOS>MOLECULE
MYE
   56    56     1     0     0
SMALL
No Charge or Current Charge


@<TRIPOS>ATOM
      1 C2          -1.5110    -6.3680     6.5300 c3         1 MYE      -0.071400
      2 C3          -1.8720    -4.9410     6.0660 c3         1 MYE      -0.083400
      3 C4          -2.0910    -3.9590     7.2420 c3         1 MYE      -0.080400
      4 C5          -2.5280    -2.5320     6.8090 c3         1 MYE      -0.016300
      5 N6          -1.4900    -1.8800     5.9740 ns         1 MYE      -0.497900
      6 C7          -1.5090    -1.8150     4.5920 c          1 MYE       0.582100
      7 O8          -2.4480    -2.2540     3.9390 o          1 MYE      -0.593100
      8 C9          -0.2550    -1.1520     3.9480 c3         1 MYE       0.049700
      9 C10         -0.2710     0.3920     4.1620 c3         1 MYE      -0.079400
     10 C11          1.0290     1.1850     3.8290 c3         1 MYE      -0.057700
     11 C12          1.3280     1.3110     2.3170 c3         1 MYE      -0.091100
     12 C13          2.2610     0.6780     4.6140 c3         1 MYE      -0.091100
     13 N14         -0.1790    -1.5100     2.5160 ns         1 MYE      -0.473900
     14 C15          0.8440    -2.1990     1.9310 c          1 MYE       0.638100
     15 O16          1.8420    -2.6040     2.5060 o          1 MYE      -0.549000
     16 O17          0.5690    -2.3530     0.6090 os         1 MYE      -0.451100
     17 C18          1.5390    -3.0460    -0.1930 c3         1 MYE       0.229900
     18 C19          1.0310    -3.0870    -1.6280 ca         1 MYE      -0.088300
     19 C20          0.2790    -4.1880    -2.0860 ca         1 MYE      -0.084500
     20 C21         -0.1900    -4.2240    -3.4110 ca         1 MYE      -0.090000
     21 C22          0.0910    -3.1590    -4.2830 ca         1 MYE      -0.007900
     22 Br2         -0.5470    -3.2070    -6.0860 br         1 MYE      -0.096100
     23 C24          0.8380    -2.0570    -3.8340 ca         1 MYE      -0.090000
     24 C25          1.3070    -2.0210    -2.5090 ca         1 MYE      -0.084500
     25 C26         -2.8820    -1.6150     8.0080 c          1 MYE       0.561900
     26 O27         -2.4880    -1.7940     9.1580 o          1 MYE      -0.503100
     27 C1          -1.2870    -7.3440     5.3580 c3         1 MYE      -0.089100
     28 H21A        -0.6010    -6.3320     7.1420 hc         1 MYE       0.035200
     29 H22         -2.3130    -6.7580     7.1690 hc         1 MYE       0.035200
     30 H31         -1.0690    -4.5660     5.4200 hc         1 MYE       0.052200
     31 H32         -2.7830    -4.9800     5.4540 hc         1 MYE       0.052200
     32 H41         -1.1680    -3.8940     7.8320 hc         1 MYE       0.053200
     33 H42         -2.8600    -4.3750     7.9060 hc         1 MYE       0.053200
     34 H5          -3.4550    -2.6160     6.2260 h1         1 MYE       0.102700
     35 HN6         -0.6690    -1.5000     6.4340 hn         1 MYE       0.316500
     36 H9           0.6110    -1.5750     4.4720 h1         1 MYE       0.079700
     37 H101        -0.5050     0.5880     5.2160 hc         1 MYE       0.055200
     38 H102        -1.1070     0.8200     3.5940 hc         1 MYE       0.055200
     39 H11          0.8440     2.2090     4.1800 hc         1 MYE       0.046700
     40 H121         2.0910     2.0790     2.1440 hc         1 MYE       0.036367
     41 H122         0.4270     1.6010     1.7630 hc         1 MYE       0.036367
     42 H123         1.7070     0.3730     1.9000 hc         1 MYE       0.036367
     43 H131         2.5670    -0.3180     4.2730 hc         1 MYE       0.036367
     44 H132         3.1110     1.3570     4.4760 hc         1 MYE       0.036367
     45 H133         2.0430     0.6240     5.6880 hc         1 MYE       0.036367
     46 H14         -0.9560    -1.2780     1.9100 hn         1 MYE       0.337500
     47 H181         1.6880    -4.0700     0.1750 h1         1 MYE       0.059200
     48 H182         2.5090    -2.5320    -0.1620 h1         1 MYE       0.059200
     49 H20          0.0560    -5.0140    -1.4150 ha         1 MYE       0.120500
     50 H21         -0.7700    -5.0750    -3.7600 ha         1 MYE       0.131500
     51 H24          1.0530    -1.2320    -4.5090 ha         1 MYE       0.131500
     52 H25          1.8820    -1.1640    -2.1650 ha         1 MYE       0.120500
     53 H26         -3.5370    -0.7510     7.7600 h4         1 MYE      -0.007800
     54 H11A        -2.1920    -7.4280     4.7450 hc         1 MYE       0.032700
     55 H12         -0.4650    -7.0000     4.7190 hc         1 MYE       0.032700
     56 H13         -1.0330    -8.3420     5.7350 hc         1 MYE       0.032700
@<TRIPOS>BOND
     1     1     2 1   
     2     1    27 1   
     3     1    28 1   
     4     1    29 1   
     5     2     3 1   
     6     2    30 1   
     7     2    31 1   
     8     3     4 1   
     9     3    32 1   
    10     3    33 1   
    11     4     5 1   
    12     4    25 1   
    13     4    34 1   
    14     5     6 1   
    15     5    35 1   
    16     6     7 2   
    17     6     8 1   
    18     8     9 1   
    19     8    13 1   
    20     8    36 1   
    21     9    10 1   
    22     9    37 1   
    23     9    38 1   
    24    10    11 1   
    25    10    12 1   
    26    10    39 1   
    27    11    40 1   
    28    11    41 1   
    29    11    42 1   
    30    12    43 1   
    31    12    44 1   
    32    12    45 1   
    33    13    14 1   
    34    13    46 1   
    35    14    15 2   
    36    14    16 1   
    37    16    17 1   
    38    17    18 1   
    39    17    47 1   
    40    17    48 1   
    41    18    19 ar  
    42    18    24 ar  
    43    19    20 ar  
    44    19    49 1   
    45    20    21 ar  
    46    20    50 1   
    47    21    22 1   
    48    21    23 ar  
    49    23    24 ar  
    50    23    51 1   
    51    24    52 1   
    52    25    26 2   
    53    25    53 1   
    54    27    54 1   
    55    27    55 1   
    56    27    56 1   
@<TRIPOS>SUBSTRUCTURE
     1 MYE         1 TEMP              0 ****  ****    0 ROOT
