@<TRIPOS>MOLECULE
MYF
   32    34     1     0     0
SMALL
No Charge or Current Charge


@<TRIPOS>ATOM
      1 O22          5.5730     2.4220    -0.5310 o          1 MYF      -0.599100
      2 C7           4.4370     2.8750    -0.5220 c          1 MYF       0.614900
      3 C6           3.2570     2.0370    -0.2630 ca         1 MYF      -0.380600
      4 C1           3.3670     0.6790     0.0800 ca         1 MYF       0.282100
      5 O21          4.5830     0.0880     0.1790 oh         1 MYF      -0.537100
      6 C2           2.2230    -0.0830     0.3230 ca         1 MYF      -0.245000
      7 C3           0.9630     0.5050     0.2180 ca         1 MYF       0.243100
      8 O20         -0.1490    -0.2400     0.4480 oh         1 MYF      -0.518100
      9 C5           1.9900     2.6320    -0.3620 ca         1 MYF       0.244100
     10 C4           0.8460     1.8540    -0.1280 ca         1 MYF      -0.299000
     11 O10          1.7730     3.9500    -0.7340 os         1 MYF      -0.214200
     12 C9           2.8770     4.7850    -0.7410 cc         1 MYF       0.221900
     13 C8           4.1560     4.2740    -0.7330 cd         1 MYF      -0.380200
     14 C11          2.6550     6.2240    -0.9350 ca         1 MYF      -0.038800
     15 C12          3.5310     7.1810    -0.3720 ca         1 MYF      -0.137500
     16 C13          3.3040     8.5570    -0.5590 ca         1 MYF       0.113600
     17 O19          4.1540     9.4810    -0.0120 oh         1 MYF      -0.540600
     18 C14          2.1950     8.9920    -1.3100 ca         1 MYF       0.040100
     19 O18          1.9750    10.3350    -1.4920 oh         1 MYF      -0.551100
     20 C15          1.3150     8.0450    -1.8670 ca         1 MYF       0.113600
     21 C16          1.5420     6.6730    -1.6790 ca         1 MYF      -0.137500
     22 O17          0.2400     8.4690    -2.5910 oh         1 MYF      -0.540600
     23 HO21         5.2360     0.7960    -0.0580 ho         1 MYF       0.525000
     24 H2           2.3140    -1.1310     0.5880 ha         1 MYF       0.153000
     25 HO20        -0.9310     0.3380     0.3270 ho         1 MYF       0.475000
     26 H4          -0.1330     2.3150    -0.2200 ha         1 MYF       0.138000
     27 H8           5.0330     4.8920    -0.8650 ha         1 MYF       0.215000
     28 H12          4.3800     6.8540     0.2240 ha         1 MYF       0.138000
     29 HO19         4.8660     9.0120     0.4760 ho         1 MYF       0.485000
     30 HO18         2.7020    10.8050    -1.0200 ho         1 MYF       0.496000
     31 H16          0.8530     5.9570    -2.1190 ha         1 MYF       0.138000
     32 HO17         0.2820     9.4520    -2.5910 ho         1 MYF       0.485000
@<TRIPOS>BOND
     1     1     2 2   
     2     2     3 1   
     3     2    13 1   
     4     3     4 ar  
     5     3     9 ar  
     6     4     5 1   
     7     4     6 ar  
     8     5    23 1   
     9     6     7 ar  
    10     6    24 1   
    11     7     8 1   
    12     7    10 ar  
    13     8    25 1   
    14     9    10 ar  
    15     9    11 1   
    16    10    26 1   
    17    11    12 1   
    18    12    13 2   
    19    12    14 1   
    20    13    27 1   
    21    14    15 ar  
    22    14    21 ar  
    23    15    16 ar  
    24    15    28 1   
    25    16    17 1   
    26    16    18 ar  
    27    17    29 1   
    28    18    19 1   
    29    18    20 ar  
    30    19    30 1   
    31    20    21 ar  
    32    20    22 1   
    33    21    31 1   
    34    22    32 1   
@<TRIPOS>SUBSTRUCTURE
     1 MYF         1 TEMP              0 ****  ****    0 ROOT
