@<TRIPOS>MOLECULE
MYF
   32    34     1     0     0
SMALL
bcc


@<TRIPOS>ATOM
      1 O22          5.6130     2.3640    -0.0810 o          1 MYF      -0.599100
      2 C7           4.4890     2.8770    -0.2120 c          1 MYF       0.614900
      3 C6           3.2790     2.0890    -0.1470 ca         1 MYF      -0.380600
      4 C1           3.3080     0.6900     0.0660 ca         1 MYF       0.282100
      5 O21          4.4680     0.0610     0.2210 oh         1 MYF      -0.498100
      6 C2           2.1290    -0.0310     0.1140 ca         1 MYF      -0.263000
      7 C3           0.9070     0.6290    -0.0470 ca         1 MYF       0.243100
      8 O20         -0.1950    -0.1250     0.0150 oh         1 MYF      -0.479100
      9 C5           2.0370     2.7020    -0.3050 ca         1 MYF       0.244100
     10 C4           0.8450     2.0030    -0.2610 ca         1 MYF      -0.317000
     11 O10          1.9550     4.0350    -0.5050 os         1 MYF      -0.214200
     12 C9           3.0520     4.8010    -0.5810 cc         1 MYF       0.221900
     13 C8           4.2950     4.2810    -0.4510 cd         1 MYF      -0.330200
     14 C11          2.7400     6.2100    -0.8260 ca         1 MYF      -0.038800
     15 C12          3.6800     7.1920    -0.5090 ca         1 MYF      -0.155500
     16 C13          3.3970     8.5230    -0.7610 ca         1 MYF       0.113600
     17 O19          4.2370     9.5390    -0.4800 oh         1 MYF      -0.501600
     18 C14          2.1760     8.8900    -1.3300 ca         1 MYF       0.040100
     19 O18          1.8490    10.1690    -1.6010 oh         1 MYF      -0.512100
     20 C15          1.2360     7.9070    -1.6370 ca         1 MYF       0.113600
     21 C16          1.5150     6.5720    -1.3820 ca         1 MYF      -0.155500
     22 O17          0.0490     8.2230    -2.1870 oh         1 MYF      -0.501600
     23 HO21         5.1830     0.7420     0.1510 ho         1 MYF       0.486000
     24 H2           2.1500    -1.1010     0.2770 ha         1 MYF       0.171000
     25 HO20        -0.9880     0.4140    -0.0910 ho         1 MYF       0.436000
     26 H4          -0.0990     2.5180    -0.3900 ha         1 MYF       0.156000
     27 H8           5.1620     4.9180    -0.5480 ha         1 MYF       0.165000
     28 H12          4.6220     6.9300    -0.0440 ha         1 MYF       0.156000
     29 HO19         5.0550     9.2170    -0.0840 ho         1 MYF       0.446000
     30 HO18         2.5430    10.7760    -1.3140 ho         1 MYF       0.457000
     31 H16          0.7680     5.8330    -1.6390 ha         1 MYF       0.156000
     32 HO17        -0.0480     9.1780    -2.2740 ho         1 MYF       0.446000
@<TRIPOS>BOND
     1     1     2 2   
     2     2     3 1   
     3     2    13 1   
     4     3     4 ar  
     5     3     9 ar  
     6     4     5 1   
     7     4     6 ar  
     8     5    23 1   
     9     6     7 ar  
    10     6    24 1   
    11     7     8 1   
    12     7    10 ar  
    13     8    25 1   
    14     9    10 ar  
    15     9    11 1   
    16    10    26 1   
    17    11    12 1   
    18    12    13 2   
    19    12    14 1   
    20    13    27 1   
    21    14    15 ar  
    22    14    21 ar  
    23    15    16 ar  
    24    15    28 1   
    25    16    17 1   
    26    16    18 ar  
    27    17    29 1   
    28    18    19 1   
    29    18    20 ar  
    30    19    30 1   
    31    20    21 ar  
    32    20    22 1   
    33    21    31 1   
    34    22    32 1   
@<TRIPOS>SUBSTRUCTURE
     1 MYF         1 TEMP              0 ****  ****    0 ROOT
