@<TRIPOS>MOLECULE
MYG
   46    47     1     0     0
SMALL
abcg2


@<TRIPOS>ATOM
      1 C1           1.5460    -0.1360     1.9520 c6         1 MYG       0.168800
      2 C2           1.3210    -0.4490     3.4300 c6         1 MYG       0.116800
      3 C3           0.2320     0.4520     4.0140 c6         1 MYG       0.114300
      4 C4          -1.0560     0.3190     3.2050 c6         1 MYG       0.116800
      5 C5          -0.8390     0.6160     1.7240 c6         1 MYG       0.168800
      6 C6           0.2570    -0.2660     1.1370 c6         1 MYG       0.190300
      7 C7           0.7090    -0.8000    -1.1550 c6         1 MYG       0.388300
      8 C8           1.5500    -0.1930    -2.2790 c6         1 MYG       0.155500
      9 C9           0.7290     0.8410    -3.0350 c6         1 MYG       0.176300
     10 C10         -0.5820     0.2290    -3.5080 c6         1 MYG       0.098300
     11 C11         -1.3310    -0.4050    -2.3300 c6         1 MYG       0.147300
     12 C12         -2.5410    -1.1750    -2.8130 c3         1 MYG       0.169600
     13 N8           2.7620     0.4050    -1.7490 n8         1 MYG      -0.987200
     14 O1           2.5110    -0.9930     1.3890 oh         1 MYG      -0.704000
     15 O2           0.9550    -1.8040     3.5410 oh         1 MYG      -0.717000
     16 O3           0.7160     1.7740     4.0160 oh         1 MYG      -0.715000
     17 O4          -2.0310     1.2380     3.6620 oh         1 MYG      -0.717000
     18 O5          -2.0180     0.3950     0.9920 oh         1 MYG      -0.704000
     19 O6           0.4990     0.1730    -0.1840 os         1 MYG      -0.456000
     20 O9           1.5010     1.3030    -4.1200 oh         1 MYG      -0.664000
     21 O10         -1.3390     1.2620    -4.1070 oh         1 MYG      -0.722000
     22 O11         -0.4870    -1.3250    -1.6560 os         1 MYG      -0.459000
     23 O12         -3.2630    -1.6710    -1.7130 oh         1 MYG      -0.694000
     24 H1           1.8730     0.9090     1.8830 h1         1 MYG       0.064200
     25 H2           2.2600    -0.2500     3.9700 h1         1 MYG       0.057200
     26 H3           0.0250     0.1200     5.0460 h1         1 MYG       0.026700
     27 H4          -1.4160    -0.7120     3.3030 h1         1 MYG       0.057200
     28 H5          -0.5130     1.6640     1.6260 h1         1 MYG       0.064200
     29 H6          -0.0860    -1.3090     1.1430 h1         1 MYG       0.083700
     30 H7           1.2350    -1.6650    -0.7370 h2         1 MYG       0.083700
     31 H8           1.7540    -1.0260    -2.9710 h1         1 MYG       0.034700
     32 H9           0.4960     1.6680    -2.3480 h1         1 MYG       0.075700
     33 H10         -0.3520    -0.5570    -4.2420 h1         1 MYG       0.043700
     34 H11         -1.6590     0.3860    -1.6450 h1         1 MYG       0.089700
     35 H121        -3.1570    -0.5000    -3.4200 h1         1 MYG       0.016700
     36 H122        -2.2040    -1.9840    -3.4780 h1         1 MYG       0.016700
     37 HN81         3.1720    -0.2030    -1.0520 hn         1 MYG       0.404500
     38 HN82         3.4460     0.4890    -2.4890 hn         1 MYG       0.404500
     39 HO1          3.3810    -0.7060     1.6810 ho         1 MYG       0.509000
     40 HO2          0.8970    -2.0290     4.4750 ho         1 MYG       0.504500
     41 HO3         -0.0190     2.3550     4.2410 ho         1 MYG       0.522000
     42 HO4         -2.4410     0.8860     4.4590 ho         1 MYG       0.504500
     43 HO5         -2.7060     0.9490     1.3770 ho         1 MYG       0.509000
     44 HO9          0.9810     1.9640    -4.5890 ho         1 MYG       0.455000
     45 HO10        -1.8730     0.8900    -4.8130 ho         1 MYG       0.505000
     46 HO12        -4.0400    -2.1230    -2.0540 ho         1 MYG       0.496000
@<TRIPOS>BOND
     1     1     2 1   
     2     1     6 1   
     3     1    14 1   
     4     1    24 1   
     5     2     3 1   
     6     2    15 1   
     7     2    25 1   
     8     3     4 1   
     9     3    16 1   
    10     3    26 1   
    11     4     5 1   
    12     4    17 1   
    13     4    27 1   
    14     5     6 1   
    15     5    18 1   
    16     5    28 1   
    17     6    19 1   
    18     6    29 1   
    19     7     8 1   
    20     7    19 1   
    21     7    22 1   
    22     7    30 1   
    23     8     9 1   
    24     8    13 1   
    25     8    31 1   
    26     9    10 1   
    27     9    20 1   
    28     9    32 1   
    29    10    11 1   
    30    10    21 1   
    31    10    33 1   
    32    11    12 1   
    33    11    22 1   
    34    11    34 1   
    35    12    23 1   
    36    12    35 1   
    37    12    36 1   
    38    13    37 1   
    39    13    38 1   
    40    14    39 1   
    41    15    40 1   
    42    16    41 1   
    43    17    42 1   
    44    18    43 1   
    45    20    44 1   
    46    21    45 1   
    47    23    46 1   
@<TRIPOS>SUBSTRUCTURE
     1 MYG         1 TEMP              0 ****  ****    0 ROOT
