@<TRIPOS>MOLECULE
MYG
   46    47     1     0     0
SMALL
No Charge or Current Charge


@<TRIPOS>ATOM
      1 C1           1.4870    -0.3710     2.0490 c6         1 MYG       0.168800
      2 C2           0.9570    -0.8160     3.4480 c6         1 MYG       0.116800
      3 C3           0.0220     0.2590     4.0910 c6         1 MYG       0.114300
      4 C4          -1.1390     0.6430     3.1270 c6         1 MYG       0.116800
      5 C5          -0.5830     1.1300     1.7550 c6         1 MYG       0.168800
      6 C6           0.3060     0.0320     1.0830 c6         1 MYG       0.190300
      7 C7           1.1590    -0.4950    -1.1890 c6         1 MYG       0.388300
      8 C8           1.7610     0.1620    -2.4900 c6         1 MYG       0.155500
      9 C9           0.6450     0.9700    -3.2270 c6         1 MYG       0.176300
     10 C10         -0.5830     0.0590    -3.5220 c6         1 MYG       0.098300
     11 C11         -1.0810    -0.5770    -2.1840 c6         1 MYG       0.147300
     12 C12         -2.2680    -1.5760    -2.3930 c3         1 MYG       0.169600
     13 N8           2.9900     1.0020    -2.2720 n8         1 MYG      -0.987200
     14 O1           2.2760    -1.4590     1.5360 oh         1 MYG      -0.704000
     15 O2           0.2820    -2.0870     3.3110 oh         1 MYG      -0.717000
     16 O3           0.7570     1.4430     4.4390 oh         1 MYG      -0.715000
     17 O4          -1.9530     1.6830     3.7190 oh         1 MYG      -0.717000
     18 O5          -1.6920     1.5340     0.9280 oh         1 MYG      -0.704000
     19 O6           0.7630     0.5070    -0.2200 os         1 MYG      -0.456000
     20 O9           1.1310     1.5380    -4.4610 oh         1 MYG      -0.664000
     21 O10         -1.6150     0.8270    -4.1840 oh         1 MYG      -0.722000
     22 O11          0.0070    -1.2980    -1.5420 os         1 MYG      -0.459000
     23 O12         -2.6890    -2.2270    -1.1790 oh         1 MYG      -0.694000
     24 H1           2.1240     0.5160     2.1870 h1         1 MYG       0.064200
     25 H2           1.8270    -0.9370     4.1130 h1         1 MYG       0.057200
     26 H3          -0.4160    -0.1710     5.0040 h1         1 MYG       0.026700
     27 H4          -1.7510    -0.2550     2.9480 h1         1 MYG       0.057200
     28 H5           0.0620     2.0030     1.9400 h1         1 MYG       0.064200
     29 H6          -0.3330    -0.8500     0.9300 h1         1 MYG       0.083700
     30 H7           1.9340    -1.1470    -0.7660 h2         1 MYG       0.083700
     31 H8           2.0680    -0.6530    -3.1620 h1         1 MYG       0.034700
     32 H9           0.3120     1.7760    -2.5560 h1         1 MYG       0.075700
     33 H10         -0.2510    -0.7580    -4.1810 h1         1 MYG       0.043700
     34 H11         -1.4310     0.2210    -1.5120 h1         1 MYG       0.089700
     35 H121        -3.1130    -1.0260    -2.8260 h1         1 MYG       0.016700
     36 H122        -1.9560    -2.3290    -3.1290 h1         1 MYG       0.016700
     37 HN81         3.8170     0.3930    -2.2720 hn         1 MYG       0.404500
     38 HN82         3.1120     1.5730    -3.1180 hn         1 MYG       0.404500
     39 HO1          1.8300    -2.2570     1.9130 ho         1 MYG       0.509000
     40 HO2          0.0990    -2.4230     4.2210 ho         1 MYG       0.504500
     41 HO3          0.0690     2.1450     4.5380 ho         1 MYG       0.522000
     42 HO4         -2.5270     1.2550     4.4000 ho         1 MYG       0.504500
     43 HO5         -2.3110     1.9700     1.5610 ho         1 MYG       0.509000
     44 HO9          0.3140     1.7620    -4.9630 ho         1 MYG       0.455000
     45 HO10        -2.1840     0.1970    -4.6850 ho         1 MYG       0.505000
     46 HO12        -3.3800    -2.8820    -1.4300 ho         1 MYG       0.496000
@<TRIPOS>BOND
     1     1     2 1   
     2     1     6 1   
     3     1    14 1   
     4     1    24 1   
     5     2     3 1   
     6     2    15 1   
     7     2    25 1   
     8     3     4 1   
     9     3    16 1   
    10     3    26 1   
    11     4     5 1   
    12     4    17 1   
    13     4    27 1   
    14     5     6 1   
    15     5    18 1   
    16     5    28 1   
    17     6    19 1   
    18     6    29 1   
    19     7     8 1   
    20     7    19 1   
    21     7    22 1   
    22     7    30 1   
    23     8     9 1   
    24     8    13 1   
    25     8    31 1   
    26     9    10 1   
    27     9    20 1   
    28     9    32 1   
    29    10    11 1   
    30    10    21 1   
    31    10    33 1   
    32    11    12 1   
    33    11    22 1   
    34    11    34 1   
    35    12    23 1   
    36    12    35 1   
    37    12    36 1   
    38    13    37 1   
    39    13    38 1   
    40    14    39 1   
    41    15    40 1   
    42    16    41 1   
    43    17    42 1   
    44    18    43 1   
    45    20    44 1   
    46    21    45 1   
    47    23    46 1   
@<TRIPOS>SUBSTRUCTURE
     1 MYG         1 TEMP              0 ****  ****    0 ROOT
