@<TRIPOS>MOLECULE
MYI
   25    26     1     0     0
SMALL
No Charge or Current Charge


@<TRIPOS>ATOM
      1 CAA          4.2980     1.8390     0.0430 c3         1 MYI       0.159900
      2 OAB         -3.8330     0.6220    -0.9660 o          1 MYI      -0.730000
      3 OAC         -2.3070     2.0820    -0.5500 o          1 MYI      -0.730000
      4 CAD          2.7590    -0.6140    -0.2390 ca         1 MYI      -0.174000
      5 CAE          1.9790    -1.7850    -0.3650 ca         1 MYI      -0.124000
      6 CAF         -1.6140    -2.1420     0.2050 cc         1 MYI      -0.209100
      7 CAG          0.7690     0.6690     0.4120 ca         1 MYI      -0.049000
      8 CAH         -2.4250     0.2030     0.8990 c3         1 MYI      -0.163200
      9 NAI         -0.3580    -2.6800    -0.1470 na         1 MYI      -0.244700
     10 OAJ          2.8810     1.7840     0.2860 os         1 MYI      -0.348100
     11 CAK         -2.9180     1.0570    -0.2820 c          1 MYI       0.720000
     12 CAL          2.1560     0.6170     0.1500 ca         1 MYI       0.065100
     13 CAM         -1.3780    -0.7970     0.4680 cd         1 MYI      -0.033400
     14 CAN          0.6080    -1.6920    -0.0970 ca         1 MYI      -0.073200
     15 CAO          0.0280    -0.5130     0.2770 ca         1 MYI      -0.045800
     16 HAA          4.6710     2.8580     0.2080 h1         1 MYI       0.023367
     17 HAAA         4.8360     1.1650     0.7210 h1         1 MYI       0.023367
     18 HAAB         4.5270     1.5560    -0.9920 h1         1 MYI       0.023367
     19 HAD          3.8230    -0.6780    -0.4450 ha         1 MYI       0.093000
     20 HAE          2.4300    -2.7290    -0.6620 ha         1 MYI       0.091000
     21 HAF         -2.5280    -2.7270     0.2400 h4         1 MYI       0.197000
     22 HAG          0.2930     1.5990     0.7070 ha         1 MYI       0.145000
     23 HAH         -1.9520     0.8450     1.6510 hc         1 MYI       0.028200
     24 HAHA        -3.2600    -0.3810     1.3040 hc         1 MYI       0.028200
     25 HNAI        -0.1820    -3.6490    -0.4000 hn         1 MYI       0.328000
@<TRIPOS>BOND
     1     1    10 1   
     2     1    16 1   
     3     1    17 1   
     4     1    18 1   
     5     2    11 1   
     6     3    11 1   
     7     4     5 ar  
     8     4    12 ar  
     9     4    19 1   
    10     5    14 ar  
    11     5    20 1   
    12     6     9 1   
    13     6    13 2   
    14     6    21 1   
    15     7    12 ar  
    16     7    15 ar  
    17     7    22 1   
    18     8    11 1   
    19     8    13 1   
    20     8    23 1   
    21     8    24 1   
    22     9    14 1   
    23     9    25 1   
    24    10    12 1   
    25    13    15 1   
    26    14    15 ar  
@<TRIPOS>SUBSTRUCTURE
     1 MYI         1 TEMP              0 ****  ****    0 ROOT
