@<TRIPOS>MOLECULE
MYI
   25    26     1     0     0
SMALL
bcc


@<TRIPOS>ATOM
      1 CAA          4.2280     1.7130    -0.1290 c3         1 MYI       0.136700
      2 OAB         -2.2770     1.2080    -1.2660 o          1 MYI      -0.835300
      3 OAC         -3.6590     2.1030     0.2360 o          1 MYI      -0.835300
      4 CAD          2.7390    -0.6600    -0.2830 ca         1 MYI      -0.192000
      5 CAE          1.9840    -1.8190    -0.3500 ca         1 MYI      -0.142000
      6 CAF         -1.5370    -2.1140     0.2930 cc         1 MYI      -0.159100
      7 CAG          0.7860     0.6530     0.3090 ca         1 MYI      -0.067000
      8 CAH         -2.4100     0.2110     0.9100 c3         1 MYI      -0.163200
      9 NAI         -0.3490    -2.6970    -0.0550 na         1 MYI      -0.194400
     10 OAJ          2.8420     1.7360     0.1290 os         1 MYI      -0.324900
     11 CAK         -2.8110     1.2680    -0.1450 c          1 MYI       0.930600
     12 CAL          2.1450     0.5720     0.0480 ca         1 MYI       0.065100
     13 CAM         -1.3760    -0.7710     0.4900 cd         1 MYI      -0.033400
     14 CAN          0.6240    -1.7370    -0.0770 ca         1 MYI      -0.073200
     15 CAO          0.0130    -0.5090     0.2580 ca         1 MYI      -0.045800
     16 HAA          4.5840     2.7340    -0.0060 h1         1 MYI       0.023367
     17 HAAA         4.7690     1.0710     0.5720 h1         1 MYI       0.023367
     18 HAAB         4.4540     1.3850    -1.1470 h1         1 MYI       0.023367
     19 HAD          3.7980    -0.7270    -0.4910 ha         1 MYI       0.111000
     20 HAE          2.4540    -2.7600    -0.6080 ha         1 MYI       0.109000
     21 HAF         -2.4320    -2.7120     0.3800 h4         1 MYI       0.147000
     22 HAG          0.3390     1.6070     0.5600 ha         1 MYI       0.163000
     23 HAH         -2.0720     0.7480     1.8050 hc         1 MYI       0.028200
     24 HAHA        -3.3160    -0.3180     1.2240 hc         1 MYI       0.028200
     25 HNAI        -0.2150    -3.6770    -0.2320 hn         1 MYI       0.277700
@<TRIPOS>BOND
     1     1    10 1   
     2     1    16 1   
     3     1    17 1   
     4     1    18 1   
     5     2    11 1   
     6     3    11 1   
     7     4     5 ar  
     8     4    12 ar  
     9     4    19 1   
    10     5    14 ar  
    11     5    20 1   
    12     6     9 1   
    13     6    13 2   
    14     6    21 1   
    15     7    12 ar  
    16     7    15 ar  
    17     7    22 1   
    18     8    11 1   
    19     8    13 1   
    20     8    23 1   
    21     8    24 1   
    22     9    14 1   
    23     9    25 1   
    24    10    12 1   
    25    13    15 1   
    26    14    15 ar  
@<TRIPOS>SUBSTRUCTURE
     1 MYI         1 TEMP              0 ****  ****    0 ROOT
