@<TRIPOS>MOLECULE
MYJ
   18    18     1     0     0
SMALL
bcc


@<TRIPOS>ATOM
      1 C1           2.3300     1.8820     0.1360 c3         1 MYJ      -0.053800
      2 C2           1.3750     0.7260     0.0930 ca         1 MYJ      -0.186300
      3 C3           1.8500    -0.5950     0.0540 ca         1 MYJ       0.193100
      4 C4           0.9630    -1.6710     0.0120 ca         1 MYJ      -0.183000
      5 C5          -0.3980    -1.4550     0.0090 ca         1 MYJ      -0.023000
      6 C6          -0.8710    -0.1490     0.0480 ca         1 MYJ      -0.225200
      7 C7           0.0070     0.9290     0.0900 ca         1 MYJ      -0.019000
      8 N1          -2.2920     0.0940     0.0450 no         1 MYJ       0.322200
      9 O1          -2.6800     1.2410     0.0770 o          1 MYJ      -0.216000
     10 O2          -3.0380    -0.8600     0.0100 o          1 MYJ      -0.216000
     11 O3           3.1530    -0.8880     0.0540 oh         1 MYJ      -0.484100
     12 H1           2.9820     1.9050    -0.7410 hc         1 MYJ       0.049367
     13 H2           1.7920     2.8270     0.1590 hc         1 MYJ       0.049367
     14 H3           2.9670     1.8540     1.0230 hc         1 MYJ       0.049367
     15 H4           1.3520    -2.6810    -0.0180 ha         1 MYJ       0.161000
     16 H5          -1.0720    -2.2980    -0.0240 ha         1 MYJ       0.172000
     17 H6          -0.3720     1.9410     0.1200 ha         1 MYJ       0.167000
     18 H7           3.7030    -0.0970     0.0950 ho         1 MYJ       0.440000
@<TRIPOS>BOND
     1     1     2 1   
     2     1    12 1   
     3     1    13 1   
     4     1    14 1   
     5     2     3 ar  
     6     2     7 ar  
     7     3     4 ar  
     8     3    11 1   
     9     4     5 ar  
    10     4    15 1   
    11     5     6 ar  
    12     5    16 1   
    13     6     7 ar  
    14     6     8 1   
    15     7    17 1   
    16     8     9 1   
    17     8    10 1   
    18    11    18 1   
@<TRIPOS>SUBSTRUCTURE
     1 MYJ         1 TEMP              0 ****  ****    0 ROOT
