@<TRIPOS>MOLECULE
MYJ
   18    18     1     0     0
SMALL
No Charge or Current Charge


@<TRIPOS>ATOM
      1 C1           2.3610     1.8940     0.1380 c3         1 MYJ      -0.053800
      2 C2           1.4050     0.7020     0.0920 ca         1 MYJ      -0.186300
      3 C3           1.8830    -0.6250     0.0540 ca         1 MYJ       0.193100
      4 C4           0.9850    -1.6990     0.0130 ca         1 MYJ      -0.165000
      5 C5          -0.4000    -1.4710     0.0090 ca         1 MYJ      -0.005000
      6 C6          -0.8990    -0.1500     0.0470 ca         1 MYJ      -0.225200
      7 C7           0.0130     0.9320     0.0890 ca         1 MYJ      -0.001000
      8 N1          -2.3750     0.1030     0.0440 no         1 MYJ       0.702200
      9 O1          -2.7690     1.2760     0.0780 o          1 MYJ      -0.406000
     10 O2          -3.1350    -0.8740     0.0070 o          1 MYJ      -0.406000
     11 O3           3.2210    -0.8880     0.0560 oh         1 MYJ      -0.523100
     12 H1           3.0110     1.9160    -0.7450 hc         1 MYJ       0.049367
     13 H2           1.8210     2.8480     0.1640 hc         1 MYJ       0.049367
     14 H3           2.9970     1.8600     1.0310 hc         1 MYJ       0.049367
     15 H4           1.3640    -2.7170    -0.0160 ha         1 MYJ       0.143000
     16 H5          -1.0750    -2.3250    -0.0230 ha         1 MYJ       0.154000
     17 H6          -0.3550     1.9570     0.1180 ha         1 MYJ       0.149000
     18 H7           3.6970    -0.0330     0.0870 ho         1 MYJ       0.479000
@<TRIPOS>BOND
     1     1     2 1   
     2     1    12 1   
     3     1    13 1   
     4     1    14 1   
     5     2     3 ar  
     6     2     7 ar  
     7     3     4 ar  
     8     3    11 1   
     9     4     5 ar  
    10     4    15 1   
    11     5     6 ar  
    12     5    16 1   
    13     6     7 ar  
    14     6     8 1   
    15     7    17 1   
    16     8     9 1   
    17     8    10 1   
    18    11    18 1   
@<TRIPOS>SUBSTRUCTURE
     1 MYJ         1 TEMP              0 ****  ****    0 ROOT
