@<TRIPOS>MOLECULE
MYN
   23    23     1     0     0
SMALL
bcc


@<TRIPOS>ATOM
      1 CA        -102.5560     8.9290   -24.3580 c3         1 MYN       0.030500
      2 N         -103.1890     7.6190   -24.3630 n8         1 MYN      -0.894800
      3 C         -102.1590     9.4760   -22.9580 c          1 MYN       0.919600
      4 CB        -103.4490     9.9400   -25.0830 c6         1 MYN       0.160500
      5 CG        -103.7010     9.5810   -26.5440 c6         1 MYN      -0.125400
      6 CD        -104.6410    10.6070   -27.1530 c6         1 MYN       0.226800
      7 NE        -105.7920    10.8000   -26.2900 nu         1 MYN      -0.906200
      8 CZ        -105.7350    10.4450   -24.9750 c2         1 MYN       0.751100
      9 N1        -104.6830    10.0860   -24.3370 n2         1 MYN      -0.664900
     10 NZ        -106.9570    10.4750   -24.3270 nv         1 MYN      -0.907800
     11 O         -101.6160    10.6010   -22.9460 o          1 MYN      -0.843300
     12 H4        -101.6240     8.8570   -24.9370 h1         1 MYN       0.033700
     13 HN5       -102.7050     7.0310   -23.6950 hn         1 MYN       0.333300
     14 HNT       -104.1170     7.7340   -23.9700 hn         1 MYN       0.333300
     15 OXT       -102.3800     8.7510   -21.9670 o          1 MYN      -0.843300
     16 H20       -102.9000    10.8900   -25.0710 h1         1 MYN       0.074700
     17 H21       -102.7630     9.5660   -27.1040 hc         1 MYN       0.051700
     18 H21A      -104.1410     8.5840   -26.6170 hc         1 MYN       0.051700
     19 H22       -104.1140    11.5550   -27.3040 h1         1 MYN       0.022700
     20 H22A      -104.9930    10.2820   -28.1330 h1         1 MYN       0.022700
     21 HN23      -106.6990    10.8040   -26.7260 hn         1 MYN       0.400800
     22 HN26      -106.8620    10.4420   -23.3240 hn         1 MYN       0.386800
     23 HN2A      -107.5810    11.2130   -24.6140 hn         1 MYN       0.386800
@<TRIPOS>BOND
     1     1     2 1   
     2     1     3 1   
     3     1     4 1   
     4     1    12 1   
     5     2    13 1   
     6     2    14 1   
     7     3    11 1   
     8     3    15 1   
     9     4     5 1   
    10     4     9 1   
    11     4    16 1   
    12     5     6 1   
    13     5    17 1   
    14     5    18 1   
    15     6     7 1   
    16     6    19 1   
    17     6    20 1   
    18     7     8 1   
    19     7    21 1   
    20     8     9 2   
    21     8    10 1   
    22    10    22 1   
    23    10    23 1   
@<TRIPOS>SUBSTRUCTURE
     1 MYN         1 TEMP              0 ****  ****    0 ROOT
