@<TRIPOS>MOLECULE
MYN
   23    23     1     0     0
SMALL
No Charge or Current Charge


@<TRIPOS>ATOM
      1 CA         102.5740     8.8770   -24.3400 c3         1 MYN       0.030500
      2 N         -103.2120     7.5000   -24.2610 n8         1 MYN      -1.005200
      3 C          101.9730     9.4550   -22.9920 c          1 MYN       0.709000
      4 CB        -103.4910     9.9530   -25.0300 c6         1 MYN       0.160500
      5 CG         103.6890     9.6830   -26.5480 c6         1 MYN      -0.125400
      6 CD        -104.7050    10.6880   -27.1190 c6         1 MYN       0.226800
      7 NE         105.8960    10.6710   -26.2630 nu         1 MYN      -0.961400
      8 CZ        -105.8310    10.3940   -24.9570 c2         1 MYN       0.751100
      9 N1         104.7880    10.0790   -24.3100 n2         1 MYN      -0.664900
     10 NZ        -107.0540    10.5770   -24.5030 nv         1 MYN      -1.018200
     11 O          101.1400    10.3490   -23.0670 o          1 MYN      -0.738000
     12 H4        -101.6980     8.7590   -24.9920 h1         1 MYN       0.033700
     13 HN5        102.6430     6.9190   -23.6340 hn         1 MYN       0.388500
     14 HNT       -104.0890     7.6080   -23.7370 hn         1 MYN       0.388500
     15 OXT        102.2640     8.9100   -21.9320 o          1 MYN      -0.738000
     16 H20       -102.9740    10.9210   -24.9380 h1         1 MYN       0.074700
     17 H21        102.7340     9.7650   -27.0830 hc         1 MYN       0.051700
     18 H21A      -104.0590     8.6610   -26.7090 hc         1 MYN       0.051700
     19 H22        104.2570    11.6930   -27.1150 h1         1 MYN       0.022700
     20 H22A      -104.9590    10.4340   -28.1580 h1         1 MYN       0.022700
     21 HN23       106.7750    10.3930   -26.6810 hn         1 MYN       0.456000
     22 HN26      -107.0650    10.6000   -23.4930 hn         1 MYN       0.442000
     23 HN2A       107.4860    11.3790   -24.9360 hn         1 MYN       0.442000
@<TRIPOS>BOND
     1     1     2 1   
     2     1     3 1   
     3     1     4 1   
     4     1    12 1   
     5     2    13 1   
     6     2    14 1   
     7     3    11 1   
     8     3    15 1   
     9     4     5 1   
    10     4     9 1   
    11     4    16 1   
    12     5     6 1   
    13     5    17 1   
    14     5    18 1   
    15     6     7 1   
    16     6    19 1   
    17     6    20 1   
    18     7     8 1   
    19     7    21 1   
    20     8     9 2   
    21     8    10 1   
    22    10    22 1   
    23    10    23 1   
@<TRIPOS>SUBSTRUCTURE
     1 MYN         1 TEMP              0 ****  ****    0 ROOT
