@<TRIPOS>MOLECULE
MYO
   15    15     1     0     0
SMALL
abcg2


@<TRIPOS>ATOM
      1 OAE         15.2740    14.2220     9.0460 o          1 MYO      -0.757500
      2 CAD         14.2480    14.6650     8.4910 c          1 MYO       0.748600
      3 OAF         13.0950    14.1860     8.5290 o          1 MYO      -0.757500
      4 CAC         14.4110    15.9160     7.6970 cc         1 MYO      -0.308600
      5 NAG         15.5900    16.5890     7.6220 na         1 MYO      -0.004200
      6 NAH         15.5340    17.6880     6.9120 nc         1 MYO      -0.546800
      7 CAI         14.2750    17.7740     6.4800 cd         1 MYO       0.133500
      8 CAJ         13.7880    18.9320     5.6560 c          1 MYO       0.638500
      9 OAL         12.5510    18.9670     5.4540 o          1 MYO      -0.752500
     10 OAK         14.6310    19.7540     5.2530 o          1 MYO      -0.752500
     11 CAB         13.5190    16.6680     6.9470 cd         1 MYO       0.187000
     12 NAA         12.2000    16.3690     6.6610 nv         1 MYO      -1.051000
     13 H2          16.4470    16.3080     8.0710 hn         1 MYO       0.345000
     14 H4          11.7700    15.7840     7.3590 hn         1 MYO       0.439500
     15 H5          11.6680    17.1960     6.4350 hn         1 MYO       0.439500
@<TRIPOS>BOND
     1     1     2 1   
     2     2     3 1   
     3     2     4 1   
     4     4     5 1   
     5     4    11 2   
     6     5     6 1   
     7     5    13 1   
     8     6     7 2   
     9     7     8 1   
    10     7    11 1   
    11     8     9 1   
    12     8    10 1   
    13    11    12 1   
    14    12    14 1   
    15    12    15 1   
@<TRIPOS>SUBSTRUCTURE
     1 MYO         1 TEMP              0 ****  ****    0 ROOT
