@<TRIPOS>MOLECULE
MYO
   15    15     1     0     0
SMALL
No Charge or Current Charge


@<TRIPOS>ATOM
      1 OAE         15.1140    14.1320     9.0560 o          1 MYO      -0.757500
      2 CAD         14.1730    14.6680     8.4910 c          1 MYO       0.748600
      3 OAF         13.0420    14.2060     8.5210 o          1 MYO      -0.757500
      4 CAC         14.4550    15.9200     7.7530 cc         1 MYO      -0.308600
      5 NAG         15.6720    16.5830     7.6130 na         1 MYO      -0.004200
      6 NAH         15.6020    17.7380     6.8560 nc         1 MYO      -0.546800
      7 CAI         14.3110    17.8080     6.5070 cd         1 MYO       0.133500
      8 CAJ         13.7400    18.9360     5.6490 c          1 MYO       0.638500
      9 OAL         12.5470    18.9470     5.3610 o          1 MYO      -0.752500
     10 OAK         14.4870    19.8260     5.2530 o          1 MYO      -0.752500
     11 CAB         13.5800    16.6980     7.0480 cd         1 MYO       0.187000
     12 NAA         12.2380    16.4810     6.8720 nv         1 MYO      -1.051000
     13 H2          16.5560    16.2740     8.0190 hn         1 MYO       0.345000
     14 H4          11.7980    15.6640     7.2940 hn         1 MYO       0.439500
     15 H5          11.6860    17.1390     6.3200 hn         1 MYO       0.439500
@<TRIPOS>BOND
     1     1     2 1   
     2     2     3 1   
     3     2     4 1   
     4     4     5 1   
     5     4    11 2   
     6     5     6 1   
     7     5    13 1   
     8     6     7 2   
     9     7     8 1   
    10     7    11 1   
    11     8     9 1   
    12     8    10 1   
    13    11    12 1   
    14    12    14 1   
    15    12    15 1   
@<TRIPOS>SUBSTRUCTURE
     1 MYO         1 TEMP              0 ****  ****    0 ROOT
