@<TRIPOS>MOLECULE
MYP
   83    86     1     0     0
SMALL
bcc


@<TRIPOS>ATOM
      1 N3           1.7170    -4.4940    -2.2350 n          1 MYP      -0.455800
      2 C23          1.6680    -1.5700    -2.1330 c6         1 MYP       0.190500
      3 C21          0.5660    -3.7690    -2.7420 c6         1 MYP       0.085500
      4 C22          0.9590    -2.3780    -3.2260 c6         1 MYP      -0.110900
      5 C25          2.3170    -3.7880    -1.1190 c6         1 MYP       0.085500
      6 C24          2.8070    -2.4050    -1.5330 c6         1 MYP      -0.110900
      7 C20          2.4270    -5.2680    -3.1140 c          1 MYP       0.783100
      8 O4           1.9510    -5.6410    -4.1830 o          1 MYP      -0.647100
      9 N4           2.1630    -0.2940    -2.6490 n3         1 MYP      -0.714600
     10 C29          2.8260     0.5000    -1.6250 c6         1 MYP       0.125800
     11 C28          3.3360     1.8080    -2.1970 c6         1 MYP       0.127900
     12 C26          1.1150     0.5090    -3.2620 c6         1 MYP       0.125800
     13 C27          1.6720     1.8160    -3.7910 c6         1 MYP       0.127900
     14 O5           2.3050     2.5690    -2.7820 os         1 MYP      -0.399600
     15 N2           3.6710    -5.6600    -2.7260 ns         1 MYP      -0.582900
     16 C12          4.5050    -6.4440    -3.5990 c3         1 MYP       0.049700
     17 C13          5.2620    -5.5710    -4.6220 c3         1 MYP      -0.053100
     18 C14          5.9990    -6.3980    -5.6350 ca         1 MYP      -0.090300
     19 C15          7.3650    -6.6420    -5.5220 ca         1 MYP      -0.123000
     20 C19          5.3000    -6.9840    -6.6880 ca         1 MYP      -0.123000
     21 C16          8.0190    -7.4510    -6.4410 ca         1 MYP      -0.131000
     22 C18          5.9500    -7.7930    -7.6100 ca         1 MYP      -0.131000
     23 C17          7.3130    -8.0280    -7.4870 ca         1 MYP      -0.129000
     24 C11          5.5080    -7.1990    -2.7370 c          1 MYP       0.665100
     25 O3           6.0530    -6.6540    -1.7860 o          1 MYP      -0.617100
     26 N1           5.7650    -8.4540    -3.1230 ns         1 MYP      -0.559900
     27 C7           6.7280    -9.3090    -2.4560 c3         1 MYP       0.124900
     28 C8           6.0420   -10.1970    -1.4090 c3         1 MYP      -0.093400
     29 C9           7.0110   -11.0260    -0.5750 c3         1 MYP      -0.074400
     30 CT           7.4280   -10.1560    -3.4760 c2         1 MYP      -0.009200
     31 C4          10.4150   -10.4210    -5.7780 ca         1 MYP      -0.262500
     32 C1          11.8150    -8.8790    -7.5800 ca         1 MYP      -0.075000
     33 C2          12.2550    -8.9750    -6.2650 ca         1 MYP      -0.149000
     34 C3          11.5610    -9.7570    -5.3560 ca         1 MYP      -0.034000
     35 C5           9.9650   -10.3360    -7.0870 ca         1 MYP      -0.034000
     36 C6          10.6790    -9.5620    -7.9910 ca         1 MYP      -0.149000
     37 S1           9.5290   -11.4150    -4.6110 sy         1 MYP       1.146200
     38 O1           8.5050   -12.1700    -5.3290 o          1 MYP      -0.597800
     39 O2          10.5070   -12.1360    -3.8000 o          1 MYP      -0.597800
     40 H231         0.9310    -1.3920    -1.3270 h1         1 MYP       0.020700
     41 H211        -0.1600    -3.6850    -1.9280 h1         1 MYP       0.061950
     42 H212         0.0890    -4.3340    -3.5380 h1         1 MYP       0.061950
     43 H221         1.6130    -2.4600    -4.1010 hc         1 MYP       0.057200
     44 H222         0.0470    -1.8760    -3.5530 hc         1 MYP       0.057200
     45 H251         3.1140    -4.3660    -0.6550 h1         1 MYP       0.061950
     46 H252         1.5500    -3.6870    -0.3470 h1         1 MYP       0.061950
     47 H241         3.2250    -1.9240    -0.6480 hc         1 MYP       0.057200
     48 H242         3.6160    -2.4980    -2.2650 hc         1 MYP       0.057200
     49 H291         3.6920    -0.0330    -1.2320 h1         1 MYP       0.040950
     50 H292         2.1560     0.7060    -0.7720 h1         1 MYP       0.040950
     51 H281         3.7790     2.4090    -1.4010 h1         1 MYP       0.051200
     52 H282         4.1220     1.5970    -2.9370 h1         1 MYP       0.051200
     53 H261         0.2930     0.7150    -2.5540 h1         1 MYP       0.040950
     54 H262         0.6810    -0.0180    -4.1120 h1         1 MYP       0.040950
     55 H271         2.3770     1.6030    -4.6070 h1         1 MYP       0.051200
     56 H272         0.8620     2.4230    -4.1970 h1         1 MYP       0.051200
     57 HN2          4.1290    -5.2430    -1.9330 hn         1 MYP       0.332500
     58 H112         3.8710    -7.1470    -4.1420 h1         1 MYP       0.087700
     59 H131         5.9430    -4.9040    -4.0880 hc         1 MYP       0.067200
     60 H132         4.5230    -4.9420    -5.1230 hc         1 MYP       0.067200
     61 H15          7.9240    -6.1960    -4.7070 ha         1 MYP       0.137500
     62 H19          4.2360    -6.8000    -6.7900 ha         1 MYP       0.137500
     63 H16          9.0820    -7.6330    -6.3380 ha         1 MYP       0.134000
     64 H18          5.3930    -8.2370    -8.4250 ha         1 MYP       0.134000
     65 H17          7.8220    -8.6550    -8.2080 ha         1 MYP       0.129000
     66 HN1          5.2350    -8.8400    -3.8890 hn         1 MYP       0.324500
     67 HC7          7.4550    -8.6660    -1.9560 h1         1 MYP       0.091700
     68 HC81         5.3230   -10.8520    -1.9110 hc         1 MYP       0.053200
     69 HC82         5.4640    -9.5430    -0.7510 hc         1 MYP       0.053200
     70 H101         5.5850   -12.5460     0.0300 hc         1 MYP       0.034700
     71 H102         5.7260   -11.2070     1.1660 hc         1 MYP       0.034700
     72 H103         6.9920   -12.4280     1.0830 hc         1 MYP       0.034700
     73 HC91         7.7340   -10.3590    -0.0960 hc         1 MYP       0.043200
     74 HC92         7.5890   -11.6900    -1.2210 hc         1 MYP       0.043200
     75 HCM          9.4270    -9.6830    -2.9220 h4         1 MYP       0.173000
     76 HCT          6.7970   -10.7550    -4.1270 ha         1 MYP       0.149000
     77 HC1         12.3630    -8.2710    -8.2870 ha         1 MYP       0.136000
     78 HC2         13.1450    -8.4480    -5.9490 ha         1 MYP       0.138500
     79 HC3         11.9150    -9.8430    -4.3370 ha         1 MYP       0.154000
     80 HC5          9.0720   -10.8570    -7.4020 ha         1 MYP       0.154000
     81 HC6         10.3430    -9.4920    -9.0170 ha         1 MYP       0.138500
     82 CM           8.7470   -10.2520    -3.5460 ce         1 MYP      -0.342100
     83 C10          6.2900   -11.8470     0.4850 c3         1 MYP      -0.088100
@<TRIPOS>BOND
     1     1     3 1   
     2     1     5 1   
     3     1     7 1   
     4     2     4 1   
     5     2     6 1   
     6     2     9 1   
     7     2    40 1   
     8     3     4 1   
     9     3    41 1   
    10     3    42 1   
    11     4    43 1   
    12     4    44 1   
    13     5     6 1   
    14     5    45 1   
    15     5    46 1   
    16     6    47 1   
    17     6    48 1   
    18     7     8 2   
    19     7    15 1   
    20     9    10 1   
    21     9    12 1   
    22    10    11 1   
    23    10    49 1   
    24    10    50 1   
    25    11    14 1   
    26    11    51 1   
    27    11    52 1   
    28    12    13 1   
    29    12    53 1   
    30    12    54 1   
    31    13    14 1   
    32    13    55 1   
    33    13    56 1   
    34    15    16 1   
    35    15    57 1   
    36    16    17 1   
    37    16    24 1   
    38    16    58 1   
    39    17    18 1   
    40    17    59 1   
    41    17    60 1   
    42    18    19 ar  
    43    18    20 ar  
    44    19    21 ar  
    45    19    61 1   
    46    20    22 ar  
    47    20    62 1   
    48    21    23 ar  
    49    21    63 1   
    50    22    23 ar  
    51    22    64 1   
    52    23    65 1   
    53    24    25 2   
    54    24    26 1   
    55    26    27 1   
    56    26    66 1   
    57    27    28 1   
    58    27    30 1   
    59    27    67 1   
    60    28    29 1   
    61    28    68 1   
    62    28    69 1   
    63    29    73 1   
    64    29    74 1   
    65    29    83 1   
    66    30    76 1   
    67    30    82 2   
    68    31    34 ar  
    69    31    35 ar  
    70    31    37 1   
    71    32    33 ar  
    72    32    36 ar  
    73    32    77 1   
    74    33    34 ar  
    75    33    78 1   
    76    34    79 1   
    77    35    36 ar  
    78    35    80 1   
    79    36    81 1   
    80    37    38 2   
    81    37    39 2   
    82    37    82 1   
    83    70    83 1   
    84    71    83 1   
    85    72    83 1   
    86    75    82 1   
@<TRIPOS>SUBSTRUCTURE
     1 MYP         1 TEMP              0 ****  ****    0 ROOT
