@<TRIPOS>MOLECULE
MYP
   83    86     1     0     0
SMALL
No Charge or Current Charge


@<TRIPOS>ATOM
      1 N3           1.9340    -4.1140    -2.7530 n          1 MYP      -0.388800
      2 C23          1.6120    -1.2280    -2.1190 c6         1 MYP       0.190500
      3 C21          0.6910    -3.4120    -3.1440 c6         1 MYP       0.085500
      4 C22          0.9630    -1.9070    -3.3680 c6         1 MYP      -0.110900
      5 C25          2.5270    -3.5620    -1.5090 c6         1 MYP       0.085500
      6 C24          2.8610    -2.0640    -1.6860 c6         1 MYP      -0.110900
      7 C20          2.5360    -5.0900    -3.5760 c          1 MYP       0.649100
      8 O4           2.0260    -5.4690    -4.6190 o          1 MYP      -0.647100
      9 N4           1.9610     0.2150    -2.3770 n3         1 MYP      -0.714600
     10 C29          2.6130     0.8800    -1.1940 c6         1 MYP       0.125800
     11 C28          2.9220     2.3850    -1.4480 c6         1 MYP       0.151100
     12 C26          0.7760     1.0310    -2.8220 c6         1 MYP       0.125800
     13 C27          1.1310     2.5330    -3.0370 c6         1 MYP       0.151100
     14 O5           1.7220     3.0870    -1.8410 os         1 MYP      -0.446000
     15 N2           3.7320    -5.6010    -3.1370 ns         1 MYP      -0.515900
     16 C12          4.5420    -6.6170    -3.8460 c3         1 MYP       0.049700
     17 C13          5.3110    -5.9720    -5.0290 c3         1 MYP      -0.053100
     18 C14          5.9970    -6.9990    -5.9200 ca         1 MYP      -0.090300
     19 C15          7.4020    -7.0900    -5.9450 ca         1 MYP      -0.105000
     20 C19          5.2310    -7.8860    -6.7000 ca         1 MYP      -0.105000
     21 C16          8.0330    -8.0600    -6.7390 ca         1 MYP      -0.113000
     22 C18          5.8640    -8.8580    -7.4940 ca         1 MYP      -0.113000
     23 C17          7.2650    -8.9460    -7.5130 ca         1 MYP      -0.111000
     24 C11          5.4960    -7.3320    -2.8420 c          1 MYP       0.598100
     25 O3           5.7080    -6.9060    -1.7110 o          1 MYP      -0.617100
     26 N1           6.0760    -8.4990    -3.2990 ns         1 MYP      -0.492900
     27 C7           6.9440    -9.3700    -2.5060 c3         1 MYP       0.124900
     28 C8           6.1170   -10.2000    -1.4940 c3         1 MYP      -0.093400
     29 C9           6.9770   -11.0540    -0.5320 c3         1 MYP      -0.074400
     30 CT           7.7670   -10.2560    -3.4220 c2         1 MYP      -0.059200
     31 C4          10.6380   -10.5740    -5.6640 ca         1 MYP      -0.262500
     32 C1          11.7030    -8.9700    -7.7220 ca         1 MYP      -0.057000
     33 C2          12.0260    -8.7010    -6.3810 ca         1 MYP      -0.131000
     34 C3          11.4990    -9.5020    -5.3520 ca         1 MYP      -0.016000
     35 C5          10.3140   -10.8430    -7.0110 ca         1 MYP      -0.016000
     36 C6          10.8480   -10.0410    -8.0350 ca         1 MYP      -0.131000
     37 S1           9.9970   -11.6170    -4.3400 sy         1 MYP       1.004600
     38 O1           9.0410   -12.5710    -4.9170 o          1 MYP      -0.527000
     39 O2          11.1490   -12.0770    -3.5540 o          1 MYP      -0.527000
     40 H231         0.8810    -1.2780    -1.2980 h1         1 MYP       0.020700
     41 H211        -0.0570    -3.5360    -2.3470 h1         1 MYP       0.061950
     42 H212         0.2630    -3.8460    -4.0580 h1         1 MYP       0.061950
     43 H221         1.6170    -1.7800    -4.2410 hc         1 MYP       0.057200
     44 H222         0.0050    -1.4360    -3.6170 hc         1 MYP       0.057200
     45 H251         3.4310    -4.1020    -1.2020 h1         1 MYP       0.061950
     46 H252         1.8000    -3.6760    -0.6910 h1         1 MYP       0.061950
     47 H241         3.2620    -1.7030    -0.7310 hc         1 MYP       0.057200
     48 H242         3.6600    -1.9520    -2.4320 hc         1 MYP       0.057200
     49 H291         3.5680     0.3980    -0.9460 h1         1 MYP       0.040950
     50 H292         1.9670     0.7990    -0.3060 h1         1 MYP       0.040950
     51 H281         3.3250     2.8440    -0.5340 h1         1 MYP       0.051200
     52 H282         3.6780     2.4840    -2.2410 h1         1 MYP       0.051200
     53 H261        -0.0340     0.9640    -2.0810 h1         1 MYP       0.040950
     54 H262         0.3770     0.6620    -3.7760 h1         1 MYP       0.040950
     55 H271         1.8370     2.6360    -3.8730 h1         1 MYP       0.051200
     56 H272         0.2220     3.1000    -3.2850 h1         1 MYP       0.051200
     57 HN2          4.0760    -5.2620    -2.2480 hn         1 MYP       0.332500
     58 H112         3.8620    -7.3850    -4.2380 h1         1 MYP       0.087700
     59 H131         6.0360    -5.2500    -4.6330 hc         1 MYP       0.067200
     60 H132         4.6100    -5.3890    -5.6380 hc         1 MYP       0.067200
     61 H15          8.0070    -6.4150    -5.3430 ha         1 MYP       0.119500
     62 H19          4.1440    -7.8250    -6.6920 ha         1 MYP       0.119500
     63 H16          9.1170    -8.1240    -6.7500 ha         1 MYP       0.116000
     64 H18          5.2680    -9.5420    -8.0950 ha         1 MYP       0.116000
     65 H17          7.7550    -9.6970    -8.1280 ha         1 MYP       0.111000
     66 HN1          5.8880    -8.7480    -4.2640 hn         1 MYP       0.324500
     67 HC7          7.6320    -8.7260    -1.9380 h1         1 MYP       0.091700
     68 HC81         5.4290   -10.8550    -2.0430 hc         1 MYP       0.053200
     69 HC82         5.4960    -9.5230    -0.8960 hc         1 MYP       0.053200
     70 H101         5.4400   -12.5140    -0.0010 hc         1 MYP       0.034700
     71 H102         5.5520   -11.1380     1.1220 hc         1 MYP       0.034700
     72 H103         6.7840   -12.4190     1.1580 hc         1 MYP       0.034700
     73 HC91         7.6830   -10.4040    -0.0010 hc         1 MYP       0.043200
     74 HC92         7.5740   -11.7730    -1.1070 hc         1 MYP       0.043200
     75 HCM          9.7440   -10.0050    -2.5570 h4         1 MYP       0.223000
     76 HCT          7.1830   -10.7760    -4.1850 ha         1 MYP       0.199000
     77 HC1         12.1140    -8.3510    -8.5170 ha         1 MYP       0.118000
     78 HC2         12.6890    -7.8740    -6.1380 ha         1 MYP       0.120500
     79 HC3         11.7630    -9.2890    -4.3180 ha         1 MYP       0.136000
     80 HC5          9.6570   -11.6710    -7.2720 ha         1 MYP       0.136000
     81 HC6         10.5980   -10.2490    -9.0730 ha         1 MYP       0.120500
     82 CM           9.1010   -10.4660    -3.3050 ce         1 MYP      -0.392100
     83 C10          6.1340   -11.8280     0.5000 c3         1 MYP      -0.088100
@<TRIPOS>BOND
     1     1     3 1   
     2     1     5 1   
     3     1     7 1   
     4     2     4 1   
     5     2     6 1   
     6     2     9 1   
     7     2    40 1   
     8     3     4 1   
     9     3    41 1   
    10     3    42 1   
    11     4    43 1   
    12     4    44 1   
    13     5     6 1   
    14     5    45 1   
    15     5    46 1   
    16     6    47 1   
    17     6    48 1   
    18     7     8 2   
    19     7    15 1   
    20     9    10 1   
    21     9    12 1   
    22    10    11 1   
    23    10    49 1   
    24    10    50 1   
    25    11    14 1   
    26    11    51 1   
    27    11    52 1   
    28    12    13 1   
    29    12    53 1   
    30    12    54 1   
    31    13    14 1   
    32    13    55 1   
    33    13    56 1   
    34    15    16 1   
    35    15    57 1   
    36    16    17 1   
    37    16    24 1   
    38    16    58 1   
    39    17    18 1   
    40    17    59 1   
    41    17    60 1   
    42    18    19 ar  
    43    18    20 ar  
    44    19    21 ar  
    45    19    61 1   
    46    20    22 ar  
    47    20    62 1   
    48    21    23 ar  
    49    21    63 1   
    50    22    23 ar  
    51    22    64 1   
    52    23    65 1   
    53    24    25 2   
    54    24    26 1   
    55    26    27 1   
    56    26    66 1   
    57    27    28 1   
    58    27    30 1   
    59    27    67 1   
    60    28    29 1   
    61    28    68 1   
    62    28    69 1   
    63    29    73 1   
    64    29    74 1   
    65    29    83 1   
    66    30    76 1   
    67    30    82 2   
    68    31    34 ar  
    69    31    35 ar  
    70    31    37 1   
    71    32    33 ar  
    72    32    36 ar  
    73    32    77 1   
    74    33    34 ar  
    75    33    78 1   
    76    34    79 1   
    77    35    36 ar  
    78    35    80 1   
    79    36    81 1   
    80    37    38 2   
    81    37    39 2   
    82    37    82 1   
    83    70    83 1   
    84    71    83 1   
    85    72    83 1   
    86    75    82 1   
@<TRIPOS>SUBSTRUCTURE
     1 MYP         1 TEMP              0 ****  ****    0 ROOT
