@<TRIPOS>MOLECULE
MYR
   43    42     1     0     0
SMALL
abcg2


@<TRIPOS>ATOM
      1 C1           6.5250    -0.8690     3.7490 c          1 MYR       0.714000
      2 O1           6.2610    -1.4700     4.8110 o          1 MYR      -0.743500
      3 O2           5.8750     0.0730     3.2480 o          1 MYR      -0.743500
      4 C2           7.7490    -1.3650     2.9490 c3         1 MYR      -0.207400
      5 C3           8.9100    -1.8810     3.7890 c3         1 MYR      -0.042400
      6 C4           9.5860    -0.7920     4.6120 c3         1 MYR      -0.072400
      7 C5          10.7400    -1.2990     5.4680 c3         1 MYR      -0.073400
      8 C6          11.4230    -0.1940     6.2630 c3         1 MYR      -0.075400
      9 C7          12.5630    -0.6870     7.1450 c3         1 MYR      -0.074400
     10 C8          13.2110     0.4280     7.9560 c3         1 MYR      -0.077400
     11 C9          14.3500    -0.0550     8.8490 c3         1 MYR      -0.072400
     12 C10         14.8820     1.0110     9.8030 c3         1 MYR      -0.071400
     13 C11         15.5230     2.2110     9.1160 c3         1 MYR      -0.076400
     14 C12         16.0400     3.2520    10.1000 c3         1 MYR      -0.076400
     15 C13         16.6740     4.4610     9.4240 c3         1 MYR      -0.075400
     16 C14         17.1710     5.5020    10.4180 c3         1 MYR      -0.087100
     17 H21          7.4000    -2.1720     2.2920 hc         1 MYR       0.015700
     18 H22          8.0980    -0.5730     2.2810 hc         1 MYR       0.015700
     19 H31          8.5550    -2.6740     4.4520 hc         1 MYR       0.015200
     20 H32          9.6560    -2.3450     3.1350 hc         1 MYR       0.015200
     21 H41          9.9540    -0.0070     3.9400 hc         1 MYR       0.043700
     22 H42          8.8460    -0.3130     5.2610 hc         1 MYR       0.043700
     23 H51         10.3680    -2.0660     6.1570 hc         1 MYR       0.026700
     24 H52         11.4790    -1.7980     4.8300 hc         1 MYR       0.026700
     25 H61         11.8030     0.5670     5.5730 hc         1 MYR       0.036200
     26 H62         10.6780     0.3120     6.8880 hc         1 MYR       0.036200
     27 H71         12.1860    -1.4590     7.8250 hc         1 MYR       0.032200
     28 H72         13.3210    -1.1760     6.5230 hc         1 MYR       0.032200
     29 H81         13.5730     1.2030     7.2740 hc         1 MYR       0.037200
     30 H82         12.4470     0.9080     8.5790 hc         1 MYR       0.037200
     31 H91         13.9990    -0.9090     9.4360 hc         1 MYR       0.034700
     32 H92         15.1690    -0.4330     8.2270 hc         1 MYR       0.034700
     33 H101        14.0600     1.3580    10.4410 hc         1 MYR       0.033200
     34 H102        15.6150     0.5560    10.4770 hc         1 MYR       0.033200
     35 H111        16.3480     1.8670     8.4820 hc         1 MYR       0.039700
     36 H112        14.8030     2.6880     8.4430 hc         1 MYR       0.039700
     37 H121        15.2130     3.5860    10.7370 hc         1 MYR       0.034200
     38 H122        16.7700     2.7880    10.7730 hc         1 MYR       0.034200
     39 H131        17.5050     4.1290     8.7940 hc         1 MYR       0.037200
     40 H132        15.9450     4.9180     8.7470 hc         1 MYR       0.037200
     41 H141        17.6240     6.3560     9.9130 hc         1 MYR       0.028700
     42 H142        16.3540     5.8780    11.0360 hc         1 MYR       0.028700
     43 H143        17.9210     5.0780    11.0880 hc         1 MYR       0.028700
@<TRIPOS>BOND
     1     1     2 1   
     2     1     3 1   
     3     1     4 1   
     4     4     5 1   
     5     4    17 1   
     6     4    18 1   
     7     5     6 1   
     8     5    19 1   
     9     5    20 1   
    10     6     7 1   
    11     6    21 1   
    12     6    22 1   
    13     7     8 1   
    14     7    23 1   
    15     7    24 1   
    16     8     9 1   
    17     8    25 1   
    18     8    26 1   
    19     9    10 1   
    20     9    27 1   
    21     9    28 1   
    22    10    11 1   
    23    10    29 1   
    24    10    30 1   
    25    11    12 1   
    26    11    31 1   
    27    11    32 1   
    28    12    13 1   
    29    12    33 1   
    30    12    34 1   
    31    13    14 1   
    32    13    35 1   
    33    13    36 1   
    34    14    15 1   
    35    14    37 1   
    36    14    38 1   
    37    15    16 1   
    38    15    39 1   
    39    15    40 1   
    40    16    41 1   
    41    16    42 1   
    42    16    43 1   
@<TRIPOS>SUBSTRUCTURE
     1 MYR         1 TEMP              0 ****  ****    0 ROOT
