@<TRIPOS>MOLECULE
MYR
   43    42     1     0     0
SMALL
No Charge or Current Charge


@<TRIPOS>ATOM
      1 C1           6.5010    -1.1200     3.6100 c          1 MYR       0.714000
      2 O1           5.7150    -1.9920     3.9510 o          1 MYR      -0.743500
      3 O2           6.3590     0.0610     3.8880 o          1 MYR      -0.743500
      4 C2           7.7450    -1.5400     2.8030 c3         1 MYR      -0.207400
      5 C3           8.9090    -1.9770     3.7300 c3         1 MYR      -0.042400
      6 C4           9.5010    -0.8450     4.6020 c3         1 MYR      -0.072400
      7 C5          10.7020    -1.3070     5.4560 c3         1 MYR      -0.073400
      8 C6          11.2950    -0.1780     6.3280 c3         1 MYR      -0.075400
      9 C7          12.4970    -0.6410     7.1810 c3         1 MYR      -0.074400
     10 C8          13.0900     0.4870     8.0520 c3         1 MYR      -0.077400
     11 C9          14.2950     0.0220     8.9030 c3         1 MYR      -0.072400
     12 C10         14.8630     1.1010     9.8560 c3         1 MYR      -0.071400
     13 C11         15.5010     2.3160     9.1420 c3         1 MYR      -0.076400
     14 C12         16.1340     3.3260    10.1230 c3         1 MYR      -0.076400
     15 C13         16.7690     4.5420     9.4130 c3         1 MYR      -0.075400
     16 C14         17.4020     5.5500    10.3910 c3         1 MYR      -0.087100
     17 H21          7.5170    -2.4310     2.2060 hc         1 MYR       0.015700
     18 H22          8.1240    -0.7020     2.2060 hc         1 MYR       0.015700
     19 H31          8.5670    -2.7920     4.3790 hc         1 MYR       0.015200
     20 H32          9.7100    -2.3910     3.1040 hc         1 MYR       0.015200
     21 H41          9.8180    -0.0180     3.9530 hc         1 MYR       0.043700
     22 H42          8.7240    -0.4510     5.2680 hc         1 MYR       0.043700
     23 H51         10.3860    -2.1340     6.1040 hc         1 MYR       0.026700
     24 H52         11.4850    -1.6990     4.7950 hc         1 MYR       0.026700
     25 H61         11.6120     0.6490     5.6800 hc         1 MYR       0.036200
     26 H62         10.5140     0.2140     6.9900 hc         1 MYR       0.036200
     27 H71         12.1800    -1.4690     7.8290 hc         1 MYR       0.032200
     28 H72         13.2790    -1.0330     6.5190 hc         1 MYR       0.032200
     29 H81         13.3980     1.3110     7.3980 hc         1 MYR       0.037200
     30 H82         12.3090     0.8780     8.7170 hc         1 MYR       0.037200
     31 H91         13.9870    -0.8410     9.5070 hc         1 MYR       0.034700
     32 H92         15.0950    -0.3310     8.2400 hc         1 MYR       0.034700
     33 H101        14.0650     1.4490    10.5240 hc         1 MYR       0.033200
     34 H102        15.6210     0.6300    10.4940 hc         1 MYR       0.033200
     35 H111        16.2700     1.9610     8.4440 hc         1 MYR       0.039700
     36 H112        14.7400     2.8330     8.5460 hc         1 MYR       0.039700
     37 H121        15.3660     3.6790    10.8220 hc         1 MYR       0.034200
     38 H122        16.9020     2.8170    10.7200 hc         1 MYR       0.034200
     39 H131        17.5400     4.1930     8.7130 hc         1 MYR       0.037200
     40 H132        16.0050     5.0550     8.8170 hc         1 MYR       0.037200
     41 H141        17.8380     6.3930     9.8420 hc         1 MYR       0.028700
     42 H142        16.6470     5.9450    11.0830 hc         1 MYR       0.028700
     43 H143        18.1960     5.0750    10.9790 hc         1 MYR       0.028700
@<TRIPOS>BOND
     1     1     2 1   
     2     1     3 1   
     3     1     4 1   
     4     4     5 1   
     5     4    17 1   
     6     4    18 1   
     7     5     6 1   
     8     5    19 1   
     9     5    20 1   
    10     6     7 1   
    11     6    21 1   
    12     6    22 1   
    13     7     8 1   
    14     7    23 1   
    15     7    24 1   
    16     8     9 1   
    17     8    25 1   
    18     8    26 1   
    19     9    10 1   
    20     9    27 1   
    21     9    28 1   
    22    10    11 1   
    23    10    29 1   
    24    10    30 1   
    25    11    12 1   
    26    11    31 1   
    27    11    32 1   
    28    12    13 1   
    29    12    33 1   
    30    12    34 1   
    31    13    14 1   
    32    13    35 1   
    33    13    36 1   
    34    14    15 1   
    35    14    37 1   
    36    14    38 1   
    37    15    16 1   
    38    15    39 1   
    39    15    40 1   
    40    16    41 1   
    41    16    42 1   
    42    16    43 1   
@<TRIPOS>SUBSTRUCTURE
     1 MYR         1 TEMP              0 ****  ****    0 ROOT
