@<TRIPOS>MOLECULE
MYS
   47    46     1     0     0
SMALL
No Charge or Current Charge


@<TRIPOS>ATOM
      1 C1          -0.3840    -0.0270     9.0270 c3         1 MYS      -0.088100
      2 C2           0.4630    -0.0140     7.7390 c3         1 MYS      -0.074400
      3 C3          -0.3920    -0.0240     6.4530 c3         1 MYS      -0.075400
      4 C4           0.4560    -0.0110     5.1630 c3         1 MYS      -0.074400
      5 C5          -0.3990    -0.0210     3.8770 c3         1 MYS      -0.074400
      6 C6           0.4500    -0.0090     2.5870 c3         1 MYS      -0.074400
      7 C7          -0.4060    -0.0200     1.3010 c3         1 MYS      -0.074400
      8 C8           0.4430    -0.0070     0.0100 c3         1 MYS      -0.074400
      9 C9          -0.4120    -0.0180    -1.2760 c3         1 MYS      -0.074400
     10 C10          0.4370    -0.0060    -2.5660 c3         1 MYS      -0.074400
     11 C11         -0.4190    -0.0180    -3.8520 c3         1 MYS      -0.074400
     12 C12          0.4300    -0.0060    -5.1420 c3         1 MYS      -0.074400
     13 C13         -0.4250    -0.0190    -6.4280 c3         1 MYS      -0.075400
     14 C14          0.4240    -0.0070    -7.7190 c3         1 MYS      -0.074400
     15 C15         -0.4290    -0.0200    -9.0020 c3         1 MYS      -0.088100
     16 H11         -1.0110    -0.9260     9.0700 hc         1 MYS       0.031367
     17 H12          0.2650    -0.0190     9.9110 hc         1 MYS       0.031367
     18 H13         -1.0350     0.8540     9.0720 hc         1 MYS       0.031367
     19 H21          1.1030     0.8770     7.7430 hc         1 MYS       0.036700
     20 H22          1.1280    -0.8870     7.7410 hc         1 MYS       0.036700
     21 H31         -1.0330    -0.9150     6.4540 hc         1 MYS       0.036700
     22 H32         -1.0570     0.8490     6.4560 hc         1 MYS       0.036700
     23 H41          1.0970     0.8800     5.1620 hc         1 MYS       0.036700
     24 H42          1.1210    -0.8840     5.1600 hc         1 MYS       0.036700
     25 H51         -1.0400    -0.9120     3.8780 hc         1 MYS       0.036700
     26 H52         -1.0640     0.8510     3.8790 hc         1 MYS       0.036700
     27 H61          1.0900     0.8820     2.5860 hc         1 MYS       0.037200
     28 H62          1.1150    -0.8810     2.5840 hc         1 MYS       0.037200
     29 H71         -1.0460    -0.9100     1.3020 hc         1 MYS       0.036700
     30 H72         -1.0710     0.8530     1.3030 hc         1 MYS       0.036700
     31 H81          1.0830     0.8840     0.0090 hc         1 MYS       0.036700
     32 H82          1.1080    -0.8800     0.0080 hc         1 MYS       0.036700
     33 H91         -1.0530    -0.9090    -1.2740 hc         1 MYS       0.036700
     34 H92         -1.0770     0.8540    -1.2740 hc         1 MYS       0.036700
     35 H101         1.0770     0.8850    -2.5670 hc         1 MYS       0.037200
     36 H102         1.1020    -0.8790    -2.5680 hc         1 MYS       0.037200
     37 H111        -1.0590    -0.9090    -3.8500 hc         1 MYS       0.036700
     38 H112        -1.0840     0.8550    -3.8500 hc         1 MYS       0.036700
     39 H121         1.0700     0.8850    -5.1440 hc         1 MYS       0.036700
     40 H122         1.0950    -0.8790    -5.1440 hc         1 MYS       0.036700
     41 H131        -1.0650    -0.9100    -6.4270 hc         1 MYS       0.036700
     42 H132        -1.0900     0.8540    -6.4270 hc         1 MYS       0.036700
     43 H141         1.0640     0.8840    -7.7250 hc         1 MYS       0.036700
     44 H142         1.0890    -0.8790    -7.7240 hc         1 MYS       0.036700
     45 H151         0.2150    -0.0110    -9.8890 hc         1 MYS       0.031367
     46 H152        -1.0560    -0.9180    -9.0420 hc         1 MYS       0.031367
     47 H153        -1.0820     0.8610    -9.0430 hc         1 MYS       0.031367
@<TRIPOS>BOND
     1     1     2 1   
     2     1    16 1   
     3     1    17 1   
     4     1    18 1   
     5     2     3 1   
     6     2    19 1   
     7     2    20 1   
     8     3     4 1   
     9     3    21 1   
    10     3    22 1   
    11     4     5 1   
    12     4    23 1   
    13     4    24 1   
    14     5     6 1   
    15     5    25 1   
    16     5    26 1   
    17     6     7 1   
    18     6    27 1   
    19     6    28 1   
    20     7     8 1   
    21     7    29 1   
    22     7    30 1   
    23     8     9 1   
    24     8    31 1   
    25     8    32 1   
    26     9    10 1   
    27     9    33 1   
    28     9    34 1   
    29    10    11 1   
    30    10    35 1   
    31    10    36 1   
    32    11    12 1   
    33    11    37 1   
    34    11    38 1   
    35    12    13 1   
    36    12    39 1   
    37    12    40 1   
    38    13    14 1   
    39    13    41 1   
    40    13    42 1   
    41    14    15 1   
    42    14    43 1   
    43    14    44 1   
    44    15    45 1   
    45    15    46 1   
    46    15    47 1   
@<TRIPOS>SUBSTRUCTURE
     1 MYS         1 TEMP              0 ****  ****    0 ROOT
