@<TRIPOS>MOLECULE
MYS
   47    46     1     0     0
SMALL
abcg2


@<TRIPOS>ATOM
      1 C1          -0.4220    -0.0240     8.9080 c3         1 MYS      -0.088100
      2 C2           0.4390    -0.0180     7.6520 c3         1 MYS      -0.074400
      3 C3          -0.3870    -0.0250     6.3720 c3         1 MYS      -0.075400
      4 C4           0.4580    -0.0160     5.1040 c3         1 MYS      -0.074400
      5 C5          -0.3740    -0.0250     3.8280 c3         1 MYS      -0.074400
      6 C6           0.4660    -0.0090     2.5570 c3         1 MYS      -0.074400
      7 C7          -0.3720    -0.0200     1.2840 c3         1 MYS      -0.074400
      8 C8           0.4630    -0.0050     0.0100 c3         1 MYS      -0.074400
      9 C9          -0.3790    -0.0150    -1.2600 c3         1 MYS      -0.074400
     10 C10          0.4520    -0.0020    -2.5370 c3         1 MYS      -0.074400
     11 C11         -0.3950    -0.0100    -3.8030 c3         1 MYS      -0.074400
     12 C12          0.4310     0.0020    -5.0830 c3         1 MYS      -0.074400
     13 C13         -0.4200    -0.0200    -6.3470 c3         1 MYS      -0.075400
     14 C14          0.4010    -0.0080    -7.6310 c3         1 MYS      -0.074400
     15 C15         -0.4660    -0.0290    -8.8830 c3         1 MYS      -0.088100
     16 H11         -1.0610    -0.9090     8.9420 hc         1 MYS       0.031367
     17 H12          0.1840    -0.0190     9.8140 hc         1 MYS       0.031367
     18 H13         -1.0730     0.8520     8.9410 hc         1 MYS       0.031367
     19 H21          1.0910     0.8610     7.6570 hc         1 MYS       0.036700
     20 H22          1.1040    -0.8880     7.6580 hc         1 MYS       0.036700
     21 H31         -1.0390    -0.9070     6.3670 hc         1 MYS       0.036700
     22 H32         -1.0560     0.8440     6.3680 hc         1 MYS       0.036700
     23 H41          1.1090     0.8660     5.1080 hc         1 MYS       0.036700
     24 H42          1.1270    -0.8840     5.1070 hc         1 MYS       0.036700
     25 H51         -1.0210    -0.9100     3.8240 hc         1 MYS       0.036700
     26 H52         -1.0470     0.8400     3.8280 hc         1 MYS       0.036700
     27 H61          1.1120     0.8760     2.5590 hc         1 MYS       0.037200
     28 H62          1.1390    -0.8750     2.5560 hc         1 MYS       0.037200
     29 H71         -1.0190    -0.9040     1.2840 hc         1 MYS       0.036700
     30 H72         -1.0440     0.8460     1.2870 hc         1 MYS       0.036700
     31 H81          1.1110     0.8790     0.0110 hc         1 MYS       0.036700
     32 H82          1.1350    -0.8710     0.0070 hc         1 MYS       0.036700
     33 H91         -1.0270    -0.8990    -1.2570 hc         1 MYS       0.036700
     34 H92         -1.0500     0.8520    -1.2550 hc         1 MYS       0.036700
     35 H101         1.1010     0.8810    -2.5390 hc         1 MYS       0.037200
     36 H102         1.1210    -0.8700    -2.5420 hc         1 MYS       0.037200
     37 H111        -1.0450    -0.8930    -3.7990 hc         1 MYS       0.036700
     38 H112        -1.0650     0.8570    -3.7960 hc         1 MYS       0.036700
     39 H121         1.0730     0.8900    -5.0930 hc         1 MYS       0.036700
     40 H122         1.1080    -0.8600    -5.0870 hc         1 MYS       0.036700
     41 H131        -1.0620    -0.9080    -6.3370 hc         1 MYS       0.036700
     42 H132        -1.0970     0.8420    -6.3430 hc         1 MYS       0.036700
     43 H141         1.0420     0.8790    -7.6420 hc         1 MYS       0.036700
     44 H142         1.0760    -0.8690    -7.6370 hc         1 MYS       0.036700
     45 H151         0.1360    -0.0210    -9.7920 hc         1 MYS       0.031367
     46 H152        -1.0940    -0.9210    -8.9100 hc         1 MYS       0.031367
     47 H153        -1.1270     0.8400    -8.9170 hc         1 MYS       0.031367
@<TRIPOS>BOND
     1     1     2 1   
     2     1    16 1   
     3     1    17 1   
     4     1    18 1   
     5     2     3 1   
     6     2    19 1   
     7     2    20 1   
     8     3     4 1   
     9     3    21 1   
    10     3    22 1   
    11     4     5 1   
    12     4    23 1   
    13     4    24 1   
    14     5     6 1   
    15     5    25 1   
    16     5    26 1   
    17     6     7 1   
    18     6    27 1   
    19     6    28 1   
    20     7     8 1   
    21     7    29 1   
    22     7    30 1   
    23     8     9 1   
    24     8    31 1   
    25     8    32 1   
    26     9    10 1   
    27     9    33 1   
    28     9    34 1   
    29    10    11 1   
    30    10    35 1   
    31    10    36 1   
    32    11    12 1   
    33    11    37 1   
    34    11    38 1   
    35    12    13 1   
    36    12    39 1   
    37    12    40 1   
    38    13    14 1   
    39    13    41 1   
    40    13    42 1   
    41    14    15 1   
    42    14    43 1   
    43    14    44 1   
    44    15    45 1   
    45    15    46 1   
    46    15    47 1   
@<TRIPOS>SUBSTRUCTURE
     1 MYS         1 TEMP              0 ****  ****    0 ROOT
