@<TRIPOS>MOLECULE
MYT
   31    32     1     0     0
SMALL
bcc


@<TRIPOS>ATOM
      1 N1          -1.7650    -1.1390     2.1350 nb         1 MYT      -0.676000
      2 C2          -0.7800    -0.8730     1.2880 ca         1 MYT       0.444200
      3 C3           0.2870    -0.0240     1.5800 ca         1 MYT      -0.289900
      4 C4           0.2950     0.5740     2.8420 ca         1 MYT      -0.043000
      5 C5          -0.7300     0.3060     3.7280 ca         1 MYT      -0.261300
      6 C6          -1.7380    -0.5580     3.3280 ca         1 MYT       0.426200
      7 C7           1.4130     0.2870     0.6450 c          1 MYT       0.592700
      8 O8           2.3080     1.0050     1.0330 o          1 MYT      -0.518100
      9 C9           1.7560    -1.8190    -0.6140 c3         1 MYT      -0.081100
     10 C10          1.4670    -0.3150    -0.7660 c3         1 MYT      -0.083700
     11 C11          2.6290     0.3120    -1.5480 c3         1 MYT      -0.081100
     12 C12          0.1860    -0.0220    -1.5260 ca         1 MYT      -0.194600
     13 C13         -0.3810     1.2510    -1.4650 ca         1 MYT       0.406200
     14 N14         -1.4700     1.6170    -2.1230 nb         1 MYT      -0.659000
     15 C15         -2.0580     0.7160    -2.9020 ca         1 MYT       0.402200
     16 C16         -1.5770    -0.5740    -3.0530 ca         1 MYT      -0.244300
     17 C17         -0.4390    -0.9470    -2.3540 ca         1 MYT      -0.090000
     18 H2          -0.8560    -1.3680     0.3300 h4         1 MYT       0.025100
     19 H4           1.0980     1.2420     3.1230 ha         1 MYT       0.157000
     20 H5          -0.7520     0.7560     4.7110 ha         1 MYT       0.147000
     21 H6          -2.5570    -0.7920     3.9990 h4         1 MYT       0.021100
     22 H91          0.9210    -2.3880    -0.2070 hc         1 MYT       0.045533
     23 H92          2.0130    -2.2510    -1.5810 hc         1 MYT       0.045533
     24 H93          2.6130    -1.9710     0.0420 hc         1 MYT       0.045533
     25 H111         2.5400     1.3960    -1.6180 hc         1 MYT       0.045533
     26 H112         3.5900     0.0730    -1.0930 hc         1 MYT       0.045533
     27 H113         2.6310    -0.0870    -2.5630 hc         1 MYT       0.045533
     28 H13          0.0750     2.0200    -0.8470 h4         1 MYT       0.022100
     29 H15         -2.9500     1.0360    -3.4300 h4         1 MYT       0.021100
     30 H16         -2.0850    -1.2730    -3.7030 ha         1 MYT       0.143000
     31 H17         -0.0570    -1.9540    -2.4560 ha         1 MYT       0.138000
@<TRIPOS>BOND
     1     1     2 ar  
     2     1     6 ar  
     3     2     3 ar  
     4     2    18 1   
     5     3     4 ar  
     6     3     7 1   
     7     4     5 ar  
     8     4    19 1   
     9     5     6 ar  
    10     5    20 1   
    11     6    21 1   
    12     7     8 2   
    13     7    10 1   
    14     9    10 1   
    15     9    22 1   
    16     9    23 1   
    17     9    24 1   
    18    10    11 1   
    19    10    12 1   
    20    11    25 1   
    21    11    26 1   
    22    11    27 1   
    23    12    13 ar  
    24    12    17 ar  
    25    13    14 ar  
    26    13    28 1   
    27    14    15 ar  
    28    15    16 ar  
    29    15    29 1   
    30    16    17 ar  
    31    16    30 1   
    32    17    31 1   
@<TRIPOS>SUBSTRUCTURE
     1 MYT         1 TEMP              0 ****  ****    0 ROOT
