@<TRIPOS>MOLECULE
MYT
   31    32     1     0     0
SMALL
No Charge or Current Charge


@<TRIPOS>ATOM
      1 N1          -1.8310    -1.0590     2.2100 nb         1 MYT      -0.676000
      2 C2          -0.8990    -0.6740     1.3090 ca         1 MYT       0.378900
      3 C3           0.2530     0.0640     1.6500 ca         1 MYT      -0.224600
      4 C4           0.4250     0.4280     3.0040 ca         1 MYT      -0.025000
      5 C5          -0.5410     0.0280     3.9380 ca         1 MYT      -0.178000
      6 C6          -1.6490    -0.7120     3.5030 ca         1 MYT       0.360900
      7 C7           1.2740     0.4930     0.6220 c          1 MYT       0.592700
      8 O8           1.9970     1.4480     0.8850 o          1 MYT      -0.518100
      9 C9           1.6630    -1.7700    -0.4810 c3         1 MYT      -0.081100
     10 C10          1.4170    -0.2540    -0.7550 c3         1 MYT      -0.083700
     11 C11          2.6570     0.2780    -1.5360 c3         1 MYT      -0.081100
     12 C12          0.1810     0.0270    -1.6430 ca         1 MYT      -0.129300
     13 C13         -0.3280     1.3460    -1.7440 ca         1 MYT       0.340900
     14 N14         -1.4020     1.6840    -2.4950 nb         1 MYT      -0.659000
     15 C15         -2.0160     0.7050    -3.1940 ca         1 MYT       0.336900
     16 C16         -1.5820    -0.6290    -3.1730 ca         1 MYT      -0.161000
     17 C17         -0.4680    -0.9810    -2.3940 ca         1 MYT      -0.072000
     18 H2          -1.1080    -0.9750     0.2860 h4         1 MYT       0.025100
     19 H4           1.2910     1.0030     3.3300 ha         1 MYT       0.139000
     20 H5          -0.4390     0.2860     4.9890 ha         1 MYT       0.129000
     21 H6          -2.4140    -1.0360     4.2080 h4         1 MYT       0.021100
     22 H91          0.7830    -2.2660    -0.0570 hc         1 MYT       0.045533
     23 H92          1.9330    -2.3020    -1.4020 hc         1 MYT       0.045533
     24 H93          2.4920    -1.9030     0.2250 hc         1 MYT       0.045533
     25 H111         2.5700     1.3520    -1.7430 hc         1 MYT       0.045533
     26 H112         3.5820     0.1170    -0.9670 hc         1 MYT       0.045533
     27 H113         2.7610    -0.2370    -2.4990 hc         1 MYT       0.045533
     28 H13          0.1410     2.1660    -1.2030 h4         1 MYT       0.022100
     29 H15         -2.8770     1.0010    -3.7920 h4         1 MYT       0.021100
     30 H16         -2.1070    -1.3780    -3.7590 ha         1 MYT       0.125000
     31 H17         -0.1330    -2.0140    -2.3870 ha         1 MYT       0.120000
@<TRIPOS>BOND
     1     1     2 ar  
     2     1     6 ar  
     3     2     3 ar  
     4     2    18 1   
     5     3     4 ar  
     6     3     7 1   
     7     4     5 ar  
     8     4    19 1   
     9     5     6 ar  
    10     5    20 1   
    11     6    21 1   
    12     7     8 2   
    13     7    10 1   
    14     9    10 1   
    15     9    22 1   
    16     9    23 1   
    17     9    24 1   
    18    10    11 1   
    19    10    12 1   
    20    11    25 1   
    21    11    26 1   
    22    11    27 1   
    23    12    13 ar  
    24    12    17 ar  
    25    13    14 ar  
    26    13    28 1   
    27    14    15 ar  
    28    15    16 ar  
    29    15    29 1   
    30    16    17 ar  
    31    16    30 1   
    32    17    31 1   
@<TRIPOS>SUBSTRUCTURE
     1 MYT         1 TEMP              0 ****  ****    0 ROOT
