@<TRIPOS>MOLECULE
MYU
   33    35     1     0     0
SMALL
bcc


@<TRIPOS>ATOM
      1 O20          2.9680    -1.8200     4.9310 o          1 MYU      -0.566100
      2 C11          1.8900    -2.2010     4.4550 c          1 MYU       0.614900
      3 C12          1.0210    -3.1190     5.1640 cc         1 MYU      -0.042100
      4 O19          1.4960    -3.5450     6.3500 oh         1 MYU      -0.459100
      5 C10          1.4190    -1.7840     3.1600 ca         1 MYU      -0.347600
      6 C13          2.1850    -0.9100     2.3580 ca         1 MYU       0.200100
      7 O21          3.3620    -0.4270     2.7690 oh         1 MYU      -0.521100
      8 C9           0.2030    -2.2550     2.6630 ca         1 MYU       0.217100
      9 C16         -0.2730    -1.8880     1.4180 ca         1 MYU      -0.230000
     10 C15          0.4920    -1.0240     0.6470 ca         1 MYU       0.228100
     11 O22          0.0300    -0.6700    -0.5560 oh         1 MYU      -0.481100
     12 C14          1.7240    -0.5330     1.1110 ca         1 MYU      -0.047900
     13 O23          2.4030     0.2960     0.2840 oh         1 MYU      -0.520100
     14 O8          -0.5540    -3.0860     3.4010 os         1 MYU      -0.191200
     15 C7          -0.1640    -3.4980     4.6230 cd         1 MYU       0.086900
     16 C6          -1.1210    -4.4180     5.2450 ca         1 MYU      -0.064800
     17 C5          -1.6710    -5.4580     4.4900 ca         1 MYU      -0.104000
     18 C4          -2.5720    -6.3400     5.0550 ca         1 MYU       0.121100
     19 O17         -3.0730    -7.3330     4.2980 oh         1 MYU      -0.490100
     20 C3          -2.9430    -6.1840     6.4020 ca         1 MYU       0.065100
     21 O18         -3.8220    -7.0850     6.8780 oh         1 MYU      -0.512100
     22 C2          -2.4070    -5.1470     7.1460 ca         1 MYU      -0.183000
     23 C1          -1.5010    -4.2640     6.5750 ca         1 MYU      -0.115000
     24 HO19         0.9930    -4.3050     6.6690 ho         1 MYU       0.427000
     25 HO21         3.5380    -0.8000     3.6650 ho         1 MYU       0.490000
     26 H16         -1.2200    -2.2600     1.0490 ha         1 MYU       0.174000
     27 HO22         0.6260    -0.0440    -0.9860 ho         1 MYU       0.457000
     28 HO23         3.2050     0.6250     0.7050 ho         1 MYU       0.455000
     29 H5          -1.3880    -5.6010     3.4540 ha         1 MYU       0.164000
     30 HO17        -3.6620    -7.8960     4.8150 ho         1 MYU       0.447000
     31 HO18        -4.0350    -6.9120     7.8020 ho         1 MYU       0.442000
     32 H2          -2.7060    -5.0160     8.1790 ha         1 MYU       0.139000
     33 H1          -1.1290    -3.4380     7.1680 ha         1 MYU       0.147000
@<TRIPOS>BOND
     1     1     2 2   
     2     2     3 1   
     3     2     5 1   
     4     3     4 1   
     5     3    15 2   
     6     4    24 1   
     7     5     6 ar  
     8     5     8 ar  
     9     6     7 1   
    10     6    12 ar  
    11     7    25 1   
    12     8     9 ar  
    13     8    14 1   
    14     9    10 ar  
    15     9    26 1   
    16    10    11 1   
    17    10    12 ar  
    18    11    27 1   
    19    12    13 1   
    20    13    28 1   
    21    14    15 1   
    22    15    16 1   
    23    16    17 ar  
    24    16    23 ar  
    25    17    18 ar  
    26    17    29 1   
    27    18    19 1   
    28    18    20 ar  
    29    19    30 1   
    30    20    21 1   
    31    20    22 ar  
    32    21    31 1   
    33    22    23 ar  
    34    22    32 1   
    35    23    33 1   
@<TRIPOS>SUBSTRUCTURE
     1 MYU         1 TEMP              0 ****  ****    0 ROOT
