@<TRIPOS>MOLECULE
MYU
   33    35     1     0     0
SMALL
No Charge or Current Charge


@<TRIPOS>ATOM
      1 O20          2.9360    -1.5500     4.9900 o          1 MYU      -0.566100
      2 C11          1.9360    -2.0830     4.5110 c          1 MYU       0.614900
      3 C12          1.1000    -3.0870     5.2400 cc         1 MYU      -0.042100
      4 O19          1.5510    -3.4010     6.4900 oh         1 MYU      -0.498100
      5 C10          1.4840    -1.7330     3.1290 ca         1 MYU      -0.347600
      6 C13          2.1360    -0.7630     2.3390 ca         1 MYU       0.200100
      7 O21          3.2240    -0.0950     2.8150 oh         1 MYU      -0.560100
      8 C9           0.3690    -2.4030     2.6040 ca         1 MYU       0.217100
      9 C16         -0.0960    -2.1160     1.3130 ca         1 MYU      -0.212000
     10 C15          0.5520    -1.1510     0.5370 ca         1 MYU       0.228100
     11 O22          0.1070    -0.8650    -0.7160 oh         1 MYU      -0.520100
     12 C14          1.6710    -0.4680     1.0410 ca         1 MYU      -0.047900
     13 O23          2.3120     0.4810     0.2770 oh         1 MYU      -0.559100
     14 O8          -0.2870    -3.3640     3.3310 os         1 MYU      -0.191200
     15 C7           0.0040    -3.6880     4.6310 cd         1 MYU       0.086900
     16 C6          -1.0340    -4.5540     5.2540 ca         1 MYU      -0.064800
     17 C5          -1.8390    -5.3810     4.4330 ca         1 MYU      -0.086000
     18 C4          -2.8260    -6.2090     4.9910 ca         1 MYU       0.121100
     19 O17         -3.5840    -7.0120     4.1890 oh         1 MYU      -0.529100
     20 C3          -3.0420    -6.2180     6.3820 ca         1 MYU       0.065100
     21 O18         -4.0090    -7.0240     6.9220 oh         1 MYU      -0.551100
     22 C2          -2.2720    -5.3870     7.2070 ca         1 MYU      -0.165000
     23 C1          -1.2800    -4.5590     6.6490 ca         1 MYU      -0.097000
     24 HO19         1.0910    -4.2180     6.7800 ho         1 MYU       0.466000
     25 HO21         3.3900    -0.4590     3.7240 ho         1 MYU       0.529000
     26 H16         -0.9580    -2.6430     0.9170 ha         1 MYU       0.156000
     27 HO22         0.7160    -0.1700    -1.0530 ho         1 MYU       0.496000
     28 HO23         3.0610     0.8310     0.8150 ho         1 MYU       0.494000
     29 H5          -1.6910    -5.4060     3.3570 ha         1 MYU       0.146000
     30 HO17        -4.1990    -7.4920     4.7890 ho         1 MYU       0.486000
     31 HO18        -4.0200    -6.8980     7.8970 ho         1 MYU       0.481000
     32 H2          -2.4430    -5.3660     8.2820 ha         1 MYU       0.121000
     33 H1          -0.7470    -3.8890     7.3180 ha         1 MYU       0.129000
@<TRIPOS>BOND
     1     1     2 2   
     2     2     3 1   
     3     2     5 1   
     4     3     4 1   
     5     3    15 2   
     6     4    24 1   
     7     5     6 ar  
     8     5     8 ar  
     9     6     7 1   
    10     6    12 ar  
    11     7    25 1   
    12     8     9 ar  
    13     8    14 1   
    14     9    10 ar  
    15     9    26 1   
    16    10    11 1   
    17    10    12 ar  
    18    11    27 1   
    19    12    13 1   
    20    13    28 1   
    21    14    15 1   
    22    15    16 1   
    23    16    17 ar  
    24    16    23 ar  
    25    17    18 ar  
    26    17    29 1   
    27    18    19 1   
    28    18    20 ar  
    29    19    30 1   
    30    20    21 1   
    31    20    22 ar  
    32    21    31 1   
    33    22    23 ar  
    34    22    32 1   
    35    23    33 1   
@<TRIPOS>SUBSTRUCTURE
     1 MYU         1 TEMP              0 ****  ****    0 ROOT
