@<TRIPOS>MOLECULE
MYV
  111   113     1     0     0
SMALL
abcg2


@<TRIPOS>ATOM
      1 O11        -48.6610   -17.3330    65.1770 o          1 MYV      -0.500000
      2 C34        -47.5790   -17.7670    64.8340 c          1 MYV       0.600300
      3 C33        -46.7770   -18.7520    65.5790 ce         1 MYV      -0.279200
      4 C32        -47.2500   -19.3400    66.6780 c2         1 MYV      -0.128200
      5 C30        -46.5320   -20.3790    67.4790 c3         1 MYV      -0.059500
      6 C31        -47.0130   -21.7680    67.0210 c3         1 MYV      -0.090100
      7 C21        -46.7750   -20.1570    68.9860 c3         1 MYV       0.186300
      8 O8         -46.0940   -21.1740    69.7420 os         1 MYV      -0.437000
      9 C22        -46.8790   -22.1720    70.3080 c6         1 MYV       0.396300
     10 O10        -47.5170   -21.6450    71.4630 os         1 MYV      -0.497000
     11 C28        -48.3880   -22.5860    72.1140 c6         1 MYV       0.182300
     12 C29        -49.0870   -21.8470    73.2370 c3         1 MYV      -0.087100
     13 C27        -47.5800   -23.7890    72.5940 c6         1 MYV      -0.132400
     14 C24        -46.8230   -24.4020    71.4130 c6         1 MYV       0.139500
     15 N          -45.9870   -25.5780    71.6780 n3         1 MYV      -0.742600
     16 C26        -45.0480   -25.4270    72.7850 c3         1 MYV       0.154100
     17 C25        -46.7590   -26.8070    71.8040 c3         1 MYV       0.154100
     18 C23        -45.9800   -23.3320    70.7140 c6         1 MYV       0.149300
     19 O9         -45.3460   -23.8930    69.5730 oh         1 MYV      -0.715000
     20 C19        -46.3240   -18.7770    69.4950 c3         1 MYV      -0.060700
     21 C20        -46.8890   -18.5030    70.8890 c3         1 MYV      -0.090100
     22 C18        -44.7970   -18.6200    69.4420 c3         1 MYV      -0.059400
     23 C16        -44.2600   -17.2620    69.9330 c3         1 MYV      -0.159700
     24 C17        -42.7320   -17.2040    69.8000 c3         1 MYV      -0.081100
     25 C15        -44.9180   -16.1070    69.2000 c          1 MYV       0.570300
     26 O7         -45.5700   -15.2640    69.8090 o          1 MYV      -0.539100
     27 C14        -44.7610   -16.0700    67.7390 ce         1 MYV      -0.308200
     28 C13        -45.5440   -15.3180    66.9460 cf         1 MYV      -0.103000
     29 C12        -45.4900   -15.3760    65.5070 cf         1 MYV      -0.179000
     30 C11        -46.4320   -14.8480    64.7190 c2         1 MYV      -0.184200
     31 O12        -46.9470   -17.3920    63.7030 os         1 MYV      -0.444100
     32 C35        -47.4610   -16.2580    62.9670 c3         1 MYV       0.144300
     33 C36        -47.6000   -16.6660    61.5100 c3         1 MYV      -0.079400
     34 C37        -48.6490   -17.7590    61.3160 c3         1 MYV      -0.087100
     35 C1         -46.5010   -15.0570    63.2350 c3         1 MYV       0.202200
     36 O6         -45.1850   -15.3150    62.7580 oh         1 MYV      -0.706000
     37 C2         -47.0230   -13.7870    62.5400 c3         1 MYV       0.143600
     38 O1         -48.3800   -13.5710    62.9100 os         1 MYV      -0.451000
     39 C3         -49.1590   -12.9030    61.9730 c6         1 MYV       0.384300
     40 C4         -50.6290   -13.1540    62.2960 c6         1 MYV       0.130300
     41 O2         -50.9310   -14.5320    62.1450 os         1 MYV      -0.454000
     42 C5         -51.2650   -15.1940    63.3590 c3         1 MYV       0.140900
     43 O5         -48.8670   -11.5150    62.0650 os         1 MYV      -0.497000
     44 C9         -49.6040   -10.7010    61.1390 c6         1 MYV       0.154300
     45 C10        -49.1050    -9.2800    61.2920 c3         1 MYV      -0.091100
     46 C8         -51.0990   -10.8540    61.4520 c6         1 MYV       0.135300
     47 O4         -51.9190   -10.1070    60.5580 oh         1 MYV      -0.706000
     48 C6         -51.5120   -12.3200    61.3650 c6         1 MYV       0.165300
     49 O3         -51.3710   -12.7700    60.0200 os         1 MYV      -0.454000
     50 C7         -52.4960   -13.4720    59.5110 c3         1 MYV       0.153900
     51 H33        -45.7850   -18.9650    65.2000 ha         1 MYV       0.200000
     52 H32        -48.2590   -19.0900    66.9980 ha         1 MYV       0.188000
     53 H30        -45.4610   -20.3110    67.2780 hc         1 MYV       0.072700
     54 H311       -46.8090   -21.8990    65.9580 hc         1 MYV       0.045033
     55 H312       -46.4960   -22.5510    67.5730 hc         1 MYV       0.045033
     56 H313       -48.0880   -21.8810    67.1790 hc         1 MYV       0.045033
     57 H21        -47.8510   -20.2460    69.1700 h1         1 MYV       0.046700
     58 H19        -46.7670   -18.0470    68.8070 hc         1 MYV       0.051700
     59 H22        -47.6480   -22.5170    69.6050 h2         1 MYV       0.027700
     60 H23        -45.2300   -22.9250    71.4030 h1         1 MYV       0.061700
     61 H28        -49.1320   -22.9270    71.3800 h1         1 MYV       0.031700
     62 H291       -48.3580   -21.4850    73.9650 hc         1 MYV       0.047367
     63 H292       -49.6460   -20.9950    72.8490 hc         1 MYV       0.047367
     64 H293       -49.7830   -22.5150    73.7470 hc         1 MYV       0.047367
     65 H271       -46.8850   -23.4550    73.3680 hc         1 MYV       0.057200
     66 H272       -48.2520   -24.5250    73.0410 hc         1 MYV       0.057200
     67 H24        -47.5640   -24.7330    70.6770 h1         1 MYV       0.059700
     68 H261       -44.3470   -26.2630    72.7720 h1         1 MYV       0.035700
     69 H262       -44.4780   -24.5050    72.6790 h1         1 MYV       0.035700
     70 H263       -45.5420   -25.4160    73.7670 h1         1 MYV       0.035700
     71 H251       -47.4010   -26.9300    70.9300 h1         1 MYV       0.035700
     72 H252       -46.0770   -27.6580    71.8550 h1         1 MYV       0.035700
     73 H253       -47.3920   -26.8270    72.7050 h1         1 MYV       0.035700
     74 H9         -45.1760   -24.8170    69.8310 ho         1 MYV       0.527000
     75 H201       -46.4490   -19.1750    71.6260 hc         1 MYV       0.042367
     76 H202       -46.6970   -17.4760    71.1990 hc         1 MYV       0.042367
     77 H203       -47.9690   -18.6600    70.9010 hc         1 MYV       0.042367
     78 H181       -44.3380   -19.3950    70.0600 hc         1 MYV       0.051200
     79 H182       -44.4450   -18.7860    68.4220 hc         1 MYV       0.051200
     80 H16        -44.5170   -17.1320    70.9840 hc         1 MYV       0.073700
     81 H171       -42.4110   -17.3600    68.7690 hc         1 MYV       0.039033
     82 H172       -42.3400   -16.2440    70.1410 hc         1 MYV       0.039033
     83 H173       -42.2840   -17.9910    70.4110 hc         1 MYV       0.039033
     84 H14        -44.0400   -16.7420    67.2910 ha         1 MYV       0.184000
     85 H13        -46.3020   -14.6870    67.4000 ha         1 MYV       0.190000
     86 H12        -44.6820   -15.9470    65.0650 ha         1 MYV       0.193000
     87 H11        -47.2660   -14.3080    65.1540 ha         1 MYV       0.196000
     88 H35        -48.4350   -16.0010    63.3690 h1         1 MYV       0.094700
     89 H361       -47.8870   -15.7860    60.9320 hc         1 MYV       0.048200
     90 H362       -46.6340   -17.0060    61.1260 hc         1 MYV       0.048200
     91 H371       -48.7310   -18.0290    60.2620 hc         1 MYV       0.039700
     92 H372       -48.3900   -18.6590    61.8760 hc         1 MYV       0.039700
     93 H373       -49.6290   -17.4180    61.6560 hc         1 MYV       0.039700
     94 H6         -45.2220   -15.5090    61.8130 ho         1 MYV       0.506000
     95 H21C       -46.4000   -12.9410    62.8380 h1         1 MYV       0.047200
     96 H22C       -46.9440   -13.9070    61.4560 h1         1 MYV       0.047200
     97 H3         -48.9270   -13.2610    60.9610 h2         1 MYV       0.049700
     98 H4         -50.8000   -12.8310    63.3270 h1         1 MYV       0.064700
     99 HA         -52.5550   -12.4160    61.6790 h1         1 MYV       0.059700
    100 H51C       -51.4390   -16.2400    63.1110 h1         1 MYV       0.039700
    101 H52C       -50.4500   -15.1300    64.0850 h1         1 MYV       0.039700
    102 H53C       -52.1730   -14.7710    63.8000 h1         1 MYV       0.039700
    103 HB         -49.4200   -11.0570    60.1190 h1         1 MYV       0.065700
    104 H101       -48.0340    -9.2320    61.0920 hc         1 MYV       0.047033
    105 H102       -49.6120    -8.6200    60.5880 hc         1 MYV       0.047033
    106 H103       -49.2900    -8.9190    62.3070 hc         1 MYV       0.047033
    107 H8         -51.2610   -10.5200    62.4840 h1         1 MYV       0.043700
    108 HC         -51.8940    -9.1800    60.8220 ho         1 MYV       0.503000
    109 H71C       -53.3910   -12.8410    59.5250 h1         1 MYV       0.034033
    110 H72C       -52.2640   -13.7390    58.4810 h1         1 MYV       0.034033
    111 H73C       -52.6910   -14.3820    60.0860 h1         1 MYV       0.034033
@<TRIPOS>BOND
     1     1     2 2   
     2     2     3 1   
     3     2    31 1   
     4     3     4 2   
     5     3    51 1   
     6     4     5 1   
     7     4    52 1   
     8     5     6 1   
     9     5     7 1   
    10     5    53 1   
    11     6    54 1   
    12     6    55 1   
    13     6    56 1   
    14     7     8 1   
    15     7    20 1   
    16     7    57 1   
    17     8     9 1   
    18     9    10 1   
    19     9    18 1   
    20     9    59 1   
    21    10    11 1   
    22    11    12 1   
    23    11    13 1   
    24    11    61 1   
    25    12    62 1   
    26    12    63 1   
    27    12    64 1   
    28    13    14 1   
    29    13    65 1   
    30    13    66 1   
    31    14    15 1   
    32    14    18 1   
    33    14    67 1   
    34    15    16 1   
    35    15    17 1   
    36    16    68 1   
    37    16    69 1   
    38    16    70 1   
    39    17    71 1   
    40    17    72 1   
    41    17    73 1   
    42    18    19 1   
    43    18    60 1   
    44    19    74 1   
    45    20    21 1   
    46    20    22 1   
    47    20    58 1   
    48    21    75 1   
    49    21    76 1   
    50    21    77 1   
    51    22    23 1   
    52    22    78 1   
    53    22    79 1   
    54    23    24 1   
    55    23    25 1   
    56    23    80 1   
    57    24    81 1   
    58    24    82 1   
    59    24    83 1   
    60    25    26 2   
    61    25    27 1   
    62    27    28 2   
    63    27    84 1   
    64    28    29 1   
    65    28    85 1   
    66    29    30 2   
    67    29    86 1   
    68    30    35 1   
    69    30    87 1   
    70    31    32 1   
    71    32    33 1   
    72    32    35 1   
    73    32    88 1   
    74    33    34 1   
    75    33    89 1   
    76    33    90 1   
    77    34    91 1   
    78    34    92 1   
    79    34    93 1   
    80    35    36 1   
    81    35    37 1   
    82    36    94 1   
    83    37    38 1   
    84    37    95 1   
    85    37    96 1   
    86    38    39 1   
    87    39    40 1   
    88    39    43 1   
    89    39    97 1   
    90    40    41 1   
    91    40    48 1   
    92    40    98 1   
    93    41    42 1   
    94    42   100 1   
    95    42   101 1   
    96    42   102 1   
    97    43    44 1   
    98    44    45 1   
    99    44    46 1   
   100    44   103 1   
   101    45   104 1   
   102    45   105 1   
   103    45   106 1   
   104    46    47 1   
   105    46    48 1   
   106    46   107 1   
   107    47   108 1   
   108    48    49 1   
   109    48    99 1   
   110    49    50 1   
   111    50   109 1   
   112    50   110 1   
   113    50   111 1   
@<TRIPOS>SUBSTRUCTURE
     1 MYV         1 TEMP              0 ****  ****    0 ROOT
