@<TRIPOS>MOLECULE
MYV
  111   113     1     0     0
SMALL
No Charge or Current Charge


@<TRIPOS>ATOM
      1 O11        -48.9200   -17.5850    65.1440 o          1 MYV      -0.500000
      2 C34        -47.8960   -18.0940    64.7110 c          1 MYV       0.600300
      3 C33        -47.0560   -19.0480    65.4830 ce         1 MYV      -0.279200
      4 C32        -47.3410   -19.4490    66.7460 c2         1 MYV      -0.128200
      5 C30        -46.5110   -20.4150    67.5800 c3         1 MYV      -0.059500
      6 C31        -46.8110   -21.8610    67.1190 c3         1 MYV      -0.090100
      7 C21        -46.7290   -20.1900    69.1200 c3         1 MYV       0.186300
      8 O8         -45.9270   -21.1330    69.8640 os         1 MYV      -0.437000
      9 C22        -46.5990   -22.2920    70.3970 c6         1 MYV       0.396300
     10 O10        -47.5190   -21.8620    71.4240 os         1 MYV      -0.497000
     11 C28        -48.3240   -22.9240    71.9720 c6         1 MYV       0.182300
     12 C29        -49.3070   -22.2750    72.9740 c3         1 MYV      -0.087100
     13 C27        -47.4170   -23.9930    72.6380 c6         1 MYV      -0.132400
     14 C24        -46.3730   -24.5050    71.6080 c6         1 MYV       0.139500
     15 N          -45.4540   -25.5790    72.1150 n3         1 MYV      -0.742600
     16 C26        -44.5980   -25.1930    73.2680 c3         1 MYV       0.154100
     17 C25        -46.1370   -26.8750    72.3450 c3         1 MYV       0.154100
     18 C23        -45.5810   -23.3040    71.0230 c6         1 MYV       0.149300
     19 O9         -44.5950   -23.8300    70.1110 oh         1 MYV      -0.715000
     20 C19        -46.3870   -18.7530    69.6490 c3         1 MYV      -0.060700
     21 C20        -46.9460   -18.5490    71.0820 c3         1 MYV      -0.090100
     22 C18        -44.8680   -18.3900    69.5690 c3         1 MYV      -0.059400
     23 C16        -44.5040   -16.9000    69.8720 c3         1 MYV      -0.159700
     24 C17        -42.9860   -16.6430    69.7060 c3         1 MYV      -0.081100
     25 C15        -45.3300   -15.9050    69.0290 c          1 MYV       0.570300
     26 O7         -46.0340   -15.0540    69.5570 o          1 MYV      -0.539100
     27 C14        -45.2710   -16.0570    67.5460 ce         1 MYV      -0.308200
     28 C13        -46.0160   -15.3570    66.6460 cf         1 MYV      -0.103000
     29 C12        -45.9780   -15.6290    65.2200 cf         1 MYV      -0.179000
     30 C11        -46.8690   -15.1420    64.3200 c2         1 MYV      -0.184200
     31 O12        -47.3650   -17.8570    63.4660 os         1 MYV      -0.444100
     32 C35        -47.9090   -16.7710    62.6700 c3         1 MYV       0.144300
     33 C36        -48.0500   -17.3030    61.2160 c3         1 MYV      -0.079400
     34 C37        -49.0260   -18.4920    61.0860 c3         1 MYV      -0.087100
     35 C1         -46.9690   -15.5170    62.8420 c3         1 MYV       0.202200
     36 O6         -45.6560   -15.8730    62.3810 oh         1 MYV      -0.706000
     37 C2         -47.4590   -14.2890    62.0130 c3         1 MYV       0.143600
     38 O1         -48.8360   -14.0090    62.3380 os         1 MYV      -0.451000
     39 C3         -49.4190   -12.8610    61.6980 c6         1 MYV       0.384300
     40 C4         -50.9610   -12.7610    61.9810 c6         1 MYV       0.130300
     41 O2         -51.7670   -13.8840    61.5080 os         1 MYV      -0.454000
     42 C5         -51.5290   -15.1890    62.0660 c3         1 MYV       0.140900
     43 O5         -48.7540   -11.7050    62.2590 os         1 MYV      -0.497000
     44 C9         -49.1820   -10.4350    61.7270 c6         1 MYV       0.154300
     45 C10        -48.2770    -9.3640    62.3890 c3         1 MYV      -0.091100
     46 C8         -50.7050   -10.2240    62.0140 c6         1 MYV       0.135300
     47 O4         -51.1740    -8.9510    61.5100 oh         1 MYV      -0.706000
     48 C6         -51.4950   -11.4150    61.3820 c6         1 MYV       0.165300
     49 O3         -51.3970   -11.3410    59.9250 os         1 MYV      -0.454000
     50 C7         -52.2410   -12.1960    59.1320 c3         1 MYV       0.153900
     51 H33        -46.1690   -19.4110    64.9680 ha         1 MYV       0.200000
     52 H32        -48.2430   -19.0810    67.2410 ha         1 MYV       0.188000
     53 H30        -45.4520   -20.2350    67.3570 hc         1 MYV       0.072700
     54 H311       -46.6980   -21.9500    66.0320 hc         1 MYV       0.045033
     55 H312       -46.1170   -22.5750    67.5780 hc         1 MYV       0.045033
     56 H313       -47.8360   -22.1500    67.3790 hc         1 MYV       0.045033
     57 H21        -47.7960   -20.3610    69.3190 h1         1 MYV       0.046700
     58 H19        -46.9330   -18.0500    69.0100 hc         1 MYV       0.051700
     59 H22        -47.1590   -22.7950    69.5950 h2         1 MYV       0.027700
     60 H23        -45.0760   -22.7820    71.8480 h1         1 MYV       0.061700
     61 H28        -48.9060   -23.3830    71.1590 h1         1 MYV       0.031700
     62 H291       -48.7720   -21.7810    73.7940 hc         1 MYV       0.047367
     63 H292       -49.9330   -21.5240    72.4780 hc         1 MYV       0.047367
     64 H293       -49.9740   -23.0260    73.4120 hc         1 MYV       0.047367
     65 H271       -46.9160   -23.5580    73.5120 hc         1 MYV       0.057200
     66 H272       -48.0370   -24.8220    73.0030 hc         1 MYV       0.057200
     67 H24        -46.9480   -24.9280    70.7690 h1         1 MYV       0.059700
     68 H261       -43.8890   -25.9980    73.5050 h1         1 MYV       0.035700
     69 H262       -44.0110   -24.2920    73.0520 h1         1 MYV       0.035700
     70 H263       -45.2030   -25.0050    74.1650 h1         1 MYV       0.035700
     71 H251       -46.7080   -27.1770    71.4570 h1         1 MYV       0.035700
     72 H252       -45.4050   -27.6650    72.5580 h1         1 MYV       0.035700
     73 H253       -46.8280   -26.8130    73.1960 h1         1 MYV       0.035700
     74 H9         -44.4270   -24.7300    70.4930 ho         1 MYV       0.527000
     75 H201       -46.3930   -19.1560    71.8090 hc         1 MYV       0.042367
     76 H202       -46.8810   -17.5000    71.3890 hc         1 MYV       0.042367
     77 H203       -48.0020   -18.8400    71.1310 hc         1 MYV       0.042367
     78 H181       -44.3140   -19.0310    70.2670 hc         1 MYV       0.051200
     79 H182       -44.4870   -18.6420    68.5740 hc         1 MYV       0.051200
     80 H16        -44.7410   -16.6980    70.9230 hc         1 MYV       0.073700
     81 H171       -42.6590   -16.8370    68.6770 hc         1 MYV       0.039033
     82 H172       -42.7420   -15.6030    69.9530 hc         1 MYV       0.039033
     83 H173       -42.4090   -17.2930    70.3750 hc         1 MYV       0.039033
     84 H14        -44.5990   -16.8270    67.1750 ha         1 MYV       0.184000
     85 H13        -46.7200   -14.6010    67.0040 ha         1 MYV       0.190000
     86 H12        -45.2160   -16.3370    64.8880 ha         1 MYV       0.193000
     87 H11        -47.6540   -14.4660    64.6620 ha         1 MYV       0.196000
     88 H35        -48.9160   -16.4920    63.0080 h1         1 MYV       0.094700
     89 H361       -48.4110   -16.4980    60.5660 hc         1 MYV       0.048200
     90 H362       -47.0690   -17.6040    60.8300 hc         1 MYV       0.048200
     91 H371       -49.1220   -18.7940    60.0370 hc         1 MYV       0.039700
     92 H372       -48.6710   -19.3580    61.6580 hc         1 MYV       0.039700
     93 H373       -50.0220   -18.2190    61.4550 hc         1 MYV       0.039700
     94 H6         -45.5510   -16.8200    62.6240 ho         1 MYV       0.506000
     95 H21C       -46.8210   -13.4270    62.2490 h1         1 MYV       0.047200
     96 H22C       -47.3530   -14.4970    60.9410 h1         1 MYV       0.047200
     97 H3         -49.2440   -12.9100    60.6130 h2         1 MYV       0.049700
     98 H4         -51.0890   -12.7080    63.0720 h1         1 MYV       0.064700
     99 HA         -52.5530   -11.3060    61.6610 h1         1 MYV       0.059700
    100 H51C       -52.3520   -15.8660    61.8080 h1         1 MYV       0.039700
    101 H52C       -50.6070   -15.6250    61.6650 h1         1 MYV       0.039700
    102 H53C       -51.4550   -15.1430    63.1610 h1         1 MYV       0.039700
    103 HB         -49.0000   -10.4240    60.6410 h1         1 MYV       0.065700
    104 H101       -47.2170    -9.5940    62.2250 hc         1 MYV       0.047033
    105 H102       -48.4610    -8.3690    61.9690 hc         1 MYV       0.047033
    106 H103       -48.4460    -9.3120    63.4710 hc         1 MYV       0.047033
    107 H8         -50.8560   -10.2610    63.1040 h1         1 MYV       0.043700
    108 HC         -50.8120    -8.2510    62.1010 ho         1 MYV       0.503000
    109 H71C       -53.2780   -12.1710    59.4930 h1         1 MYV       0.034033
    110 H72C       -52.2380   -11.8640    58.0860 h1         1 MYV       0.034033
    111 H73C       -51.8850   -13.2330    59.1460 h1         1 MYV       0.034033
@<TRIPOS>BOND
     1     1     2 2   
     2     2     3 1   
     3     2    31 1   
     4     3     4 2   
     5     3    51 1   
     6     4     5 1   
     7     4    52 1   
     8     5     6 1   
     9     5     7 1   
    10     5    53 1   
    11     6    54 1   
    12     6    55 1   
    13     6    56 1   
    14     7     8 1   
    15     7    20 1   
    16     7    57 1   
    17     8     9 1   
    18     9    10 1   
    19     9    18 1   
    20     9    59 1   
    21    10    11 1   
    22    11    12 1   
    23    11    13 1   
    24    11    61 1   
    25    12    62 1   
    26    12    63 1   
    27    12    64 1   
    28    13    14 1   
    29    13    65 1   
    30    13    66 1   
    31    14    15 1   
    32    14    18 1   
    33    14    67 1   
    34    15    16 1   
    35    15    17 1   
    36    16    68 1   
    37    16    69 1   
    38    16    70 1   
    39    17    71 1   
    40    17    72 1   
    41    17    73 1   
    42    18    19 1   
    43    18    60 1   
    44    19    74 1   
    45    20    21 1   
    46    20    22 1   
    47    20    58 1   
    48    21    75 1   
    49    21    76 1   
    50    21    77 1   
    51    22    23 1   
    52    22    78 1   
    53    22    79 1   
    54    23    24 1   
    55    23    25 1   
    56    23    80 1   
    57    24    81 1   
    58    24    82 1   
    59    24    83 1   
    60    25    26 2   
    61    25    27 1   
    62    27    28 2   
    63    27    84 1   
    64    28    29 1   
    65    28    85 1   
    66    29    30 2   
    67    29    86 1   
    68    30    35 1   
    69    30    87 1   
    70    31    32 1   
    71    32    33 1   
    72    32    35 1   
    73    32    88 1   
    74    33    34 1   
    75    33    89 1   
    76    33    90 1   
    77    34    91 1   
    78    34    92 1   
    79    34    93 1   
    80    35    36 1   
    81    35    37 1   
    82    36    94 1   
    83    37    38 1   
    84    37    95 1   
    85    37    96 1   
    86    38    39 1   
    87    39    40 1   
    88    39    43 1   
    89    39    97 1   
    90    40    41 1   
    91    40    48 1   
    92    40    98 1   
    93    41    42 1   
    94    42   100 1   
    95    42   101 1   
    96    42   102 1   
    97    43    44 1   
    98    44    45 1   
    99    44    46 1   
   100    44   103 1   
   101    45   104 1   
   102    45   105 1   
   103    45   106 1   
   104    46    47 1   
   105    46    48 1   
   106    46   107 1   
   107    47   108 1   
   108    48    49 1   
   109    48    99 1   
   110    49    50 1   
   111    50   109 1   
   112    50   110 1   
   113    50   111 1   
@<TRIPOS>SUBSTRUCTURE
     1 MYV         1 TEMP              0 ****  ****    0 ROOT
