@<TRIPOS>MOLECULE
MYX
   66    67     1     0     0
SMALL
bcc


@<TRIPOS>ATOM
      1 O1          -5.2840     2.6850     1.2400 o          1 MYX      -0.640100
      2 C1          -6.4790     2.7630     0.9600 c          1 MYX       0.703300
      3 N1          -7.3010     3.5830     1.6490 nt         1 MYX      -0.681000
      4 C2          -7.1600     2.0130    -0.1040 ce         1 MYX      -0.419200
      5 C3          -6.5770     1.1740    -0.9900 c2         1 MYX       0.211900
      6 O2          -7.2640     0.5380    -1.9370 os         1 MYX      -0.298900
      7 C4          -8.6640     0.7190    -2.0410 c3         1 MYX       0.119700
      8 C5          -5.1070     0.8340    -1.0440 c3         1 MYX      -0.015500
      9 C6          -4.6240     0.4850    -2.4510 c3         1 MYX      -0.078100
     10 C7          -4.8080    -0.2700    -0.0120 c3         1 MYX       0.184300
     11 O3          -5.5210    -1.4230    -0.3940 os         1 MYX      -0.403600
     12 C8          -5.5350    -2.4240     0.5930 c3         1 MYX       0.121700
     13 C9          -3.3350    -0.5350     0.1010 c2         1 MYX      -0.174200
     14 C10         -2.6070    -0.1080     1.1320 ce         1 MYX      -0.200800
     15 C11         -1.1720    -0.3040     1.2720 cc         1 MYX       0.406100
     16 C12         -0.4390     0.1050     2.3510 cd         1 MYX      -0.219400
     17 N2          -0.4450    -0.9340     0.3000 nc         1 MYX      -0.641000
     18 C13          0.8060    -1.0110     0.6180 cd         1 MYX       0.398400
     19 C14          1.8440    -1.6110    -0.1980 cd         1 MYX       0.299300
     20 C15          1.6710    -2.1560    -1.4340 cc         1 MYX      -0.158400
     21 N3           3.1200    -1.6470     0.2870 nd         1 MYX      -0.644000
     22 C16          3.9320    -2.2090    -0.5460 cc         1 MYX       0.446700
     23 C17          5.4110    -2.3410    -0.3260 c3         1 MYX      -0.059800
     24 C18          5.9880    -3.6010    -0.9700 c3         1 MYX      -0.089100
     25 C19          6.0890    -1.1000    -0.8360 c2         1 MYX      -0.169200
     26 C20          6.7230    -0.2240    -0.0530 ce         1 MYX      -0.107000
     27 C21          7.3840     0.9750    -0.5390 ce         1 MYX      -0.144000
     28 C22          8.0260     1.8390     0.2520 c2         1 MYX      -0.142200
     29 C23          8.7140     3.0850    -0.2110 c3         1 MYX      -0.031500
     30 C24          8.0830     4.3180     0.4370 c3         1 MYX      -0.084100
     31 C25         10.2100     3.0170     0.1030 c3         1 MYX      -0.084100
     32 S1           1.2070    -0.3120     2.1490 ss         1 MYX      -0.096300
     33 S2           3.1670    -2.7410    -2.0080 ss         1 MYX      -0.167300
     34 HN11        -6.9390     4.1400     2.4060 hn         1 MYX       0.308500
     35 HN12        -8.2780     3.6720     1.4350 hn         1 MYX       0.308500
     36 H2          -8.2290     2.1720    -0.1640 ha         1 MYX       0.126000
     37 H41         -9.1810     0.3910    -1.1370 h1         1 MYX       0.043367
     38 H42         -8.9210     1.7630    -2.2380 h1         1 MYX       0.043367
     39 H43         -8.9910     0.1090    -2.8780 h1         1 MYX       0.043367
     40 H5          -4.5600     1.7100    -0.7010 hc         1 MYX       0.102700
     41 H61         -4.8590     1.2840    -3.1550 hc         1 MYX       0.043033
     42 H62         -3.5390     0.3750    -2.4500 hc         1 MYX       0.043033
     43 H63         -5.0510    -0.4400    -2.8320 hc         1 MYX       0.043033
     44 H7          -5.1660     0.0880     0.9640 h1         1 MYX       0.052700
     45 H81         -4.5360    -2.8190     0.8080 h1         1 MYX       0.028700
     46 H82         -5.9630    -2.0630     1.5360 h1         1 MYX       0.028700
     47 H83         -6.1540    -3.2430     0.2260 h1         1 MYX       0.028700
     48 H9          -2.8590    -1.0820    -0.7070 ha         1 MYX       0.147000
     49 H10         -3.0920     0.4280     1.9430 ha         1 MYX       0.136000
     50 H12         -0.7900     0.6180     3.2330 h4         1 MYX       0.180000
     51 H15          0.7610    -2.2430    -2.0070 h4         1 MYX       0.196000
     52 H17          5.5520    -2.3980     0.7560 hc         1 MYX       0.079700
     53 H181         5.8980    -3.5810    -2.0580 hc         1 MYX       0.044033
     54 H182         7.0490    -3.6830    -0.7370 hc         1 MYX       0.044033
     55 H183         5.4890    -4.4970    -0.6030 hc         1 MYX       0.044033
     56 H19          6.0450    -0.9350    -1.9110 ha         1 MYX       0.124000
     57 H20          6.7580    -0.4030     1.0190 ha         1 MYX       0.122000
     58 H21          7.3410     1.1630    -1.6090 ha         1 MYX       0.120000
     59 H22          8.0650     1.6440     1.3230 ha         1 MYX       0.118000
     60 H23          8.5910     3.1650    -1.2960 hc         1 MYX       0.048700
     61 H241         8.1900     4.2880     1.5240 hc         1 MYX       0.034867
     62 H242         8.5640     5.2300     0.0810 hc         1 MYX       0.034867
     63 H243         7.0180     4.3880     0.2090 hc         1 MYX       0.034867
     64 H251        10.6840     2.1720    -0.3980 hc         1 MYX       0.034867
     65 H252        10.7170     3.9280    -0.2200 hc         1 MYX       0.034867
     66 H253        10.3770     2.9060     1.1770 hc         1 MYX       0.034867
@<TRIPOS>BOND
     1     1     2 2   
     2     2     3 1   
     3     2     4 1   
     4     3    34 1   
     5     3    35 1   
     6     4     5 2   
     7     4    36 1   
     8     5     6 1   
     9     5     8 1   
    10     6     7 1   
    11     7    37 1   
    12     7    38 1   
    13     7    39 1   
    14     8     9 1   
    15     8    10 1   
    16     8    40 1   
    17     9    41 1   
    18     9    42 1   
    19     9    43 1   
    20    10    11 1   
    21    10    13 1   
    22    10    44 1   
    23    11    12 1   
    24    12    45 1   
    25    12    46 1   
    26    12    47 1   
    27    13    14 2   
    28    13    48 1   
    29    14    15 1   
    30    14    49 1   
    31    15    16 2   
    32    15    17 1   
    33    16    32 1   
    34    16    50 1   
    35    17    18 2   
    36    18    19 1   
    37    18    32 1   
    38    19    20 2   
    39    19    21 1   
    40    20    33 1   
    41    20    51 1   
    42    21    22 2   
    43    22    23 1   
    44    22    33 1   
    45    23    24 1   
    46    23    25 1   
    47    23    52 1   
    48    24    53 1   
    49    24    54 1   
    50    24    55 1   
    51    25    26 2   
    52    25    56 1   
    53    26    27 1   
    54    26    57 1   
    55    27    28 2   
    56    27    58 1   
    57    28    29 1   
    58    28    59 1   
    59    29    30 1   
    60    29    31 1   
    61    29    60 1   
    62    30    61 1   
    63    30    62 1   
    64    30    63 1   
    65    31    64 1   
    66    31    65 1   
    67    31    66 1   
@<TRIPOS>SUBSTRUCTURE
     1 MYX         1 TEMP              0 ****  ****    0 ROOT
