@<TRIPOS>MOLECULE
MYX
   66    67     1     0     0
SMALL
No Charge or Current Charge


@<TRIPOS>ATOM
      1 O1          -6.1570     1.1730     2.2350 o          1 MYX      -0.640100
      2 C1          -7.1180     1.6880     1.6990 c          1 MYX       0.636300
      3 N1          -7.9960     2.3980     2.4230 nt         1 MYX      -0.614000
      4 C2          -7.3950     1.6750     0.2460 ce         1 MYX      -0.469200
      5 C3          -6.4880     1.4920    -0.7520 c2         1 MYX       0.211900
      6 O2          -6.8250     1.5330    -2.0890 os         1 MYX      -0.322100
      7 C4          -8.1790     1.7540    -2.5230 c3         1 MYX       0.142900
      8 C5          -4.9890     1.2230    -0.5770 c3         1 MYX      -0.015500
      9 C6          -4.1070     1.8380    -1.7020 c3         1 MYX      -0.078100
     10 C7          -4.7180    -0.2880    -0.3390 c3         1 MYX       0.207500
     11 O3          -4.9670    -1.0080    -1.5630 os         1 MYX      -0.450000
     12 C8          -5.0360    -2.4400    -1.4340 c3         1 MYX       0.144900
     13 C9          -3.2890    -0.5600     0.0940 c2         1 MYX      -0.224200
     14 C10         -2.8430    -0.5810     1.3740 ce         1 MYX      -0.250800
     15 C11         -1.4780    -0.8320     1.8190 cc         1 MYX       0.340800
     16 C12         -1.0520    -0.8460     3.1210 cd         1 MYX      -0.281000
     17 N2          -0.5160    -1.0770     0.8740 nc         1 MYX      -0.641000
     18 C13          0.6640    -1.2830     1.4610 cd         1 MYX       0.398400
     19 C14          1.8880    -1.5690     0.7270 cd         1 MYX       0.234000
     20 C15          1.8570    -1.6380    -0.6510 cc         1 MYX      -0.220000
     21 N3           3.1380    -1.7900     1.3040 nd         1 MYX      -0.644000
     22 C16          4.0320    -2.0190     0.3490 cc         1 MYX       0.446700
     23 C17          5.4910    -2.3020     0.6370 c3         1 MYX      -0.059800
     24 C18          5.8330    -3.7980     0.4520 c3         1 MYX      -0.089100
     25 C19          6.4150    -1.4150    -0.1840 c2         1 MYX      -0.219200
     26 C20          6.6970    -0.1250     0.0870 ce         1 MYX      -0.157000
     27 C21          7.5870     0.6940    -0.7400 ce         1 MYX      -0.194000
     28 C22          7.8670     1.9870    -0.4730 c2         1 MYX      -0.192200
     29 C23          8.7760     2.8820    -1.2920 c3         1 MYX      -0.031500
     30 C24          7.9780     4.0340    -1.9370 c3         1 MYX      -0.084100
     31 C25          9.9490     3.4060    -0.4380 c3         1 MYX      -0.084100
     32 S1           0.6650    -1.1870     3.2210 ss         1 MYX       0.048600
     33 S2           3.4340    -1.9920    -1.2950 ss         1 MYX      -0.022400
     34 HN11        -7.8640     2.4750     3.4190 hn         1 MYX       0.308500
     35 HN12        -8.7760     2.8490     1.9690 hn         1 MYX       0.308500
     36 H2          -8.4230     1.9260     0.0090 ha         1 MYX       0.176000
     37 H41         -8.8450     0.9720    -2.1370 h1         1 MYX       0.043367
     38 H42         -8.5440     2.7310    -2.1830 h1         1 MYX       0.043367
     39 H43         -8.2330     1.7350    -3.6180 h1         1 MYX       0.043367
     40 H5          -4.6650     1.7410     0.3310 hc         1 MYX       0.102700
     41 H61         -4.3310     2.9050    -1.8240 hc         1 MYX       0.043033
     42 H62         -3.0420     1.7470    -1.4570 hc         1 MYX       0.043033
     43 H63         -4.2750     1.3410    -2.6650 hc         1 MYX       0.043033
     44 H7          -5.4010    -0.6390     0.4470 h1         1 MYX       0.052700
     45 H81         -4.0830    -2.8530    -1.0780 h1         1 MYX       0.028700
     46 H82         -5.8260    -2.7300    -0.7290 h1         1 MYX       0.028700
     47 H83         -5.2620    -2.8980    -2.4050 h1         1 MYX       0.028700
     48 H9          -2.6040    -0.7400    -0.7370 ha         1 MYX       0.197000
     49 H10         -3.5400    -0.3920     2.1910 ha         1 MYX       0.186000
     50 H12         -1.6370    -0.6790     4.0150 h4         1 MYX       0.162000
     51 H15          1.0160    -1.5060    -1.3200 h4         1 MYX       0.178000
     52 H17          5.6650    -2.0750     1.6970 hc         1 MYX       0.079700
     53 H181         5.6820    -4.1100    -0.5890 hc         1 MYX       0.044033
     54 H182         6.8780    -3.9910     0.7210 hc         1 MYX       0.044033
     55 H183         5.1960    -4.4210     1.0920 hc         1 MYX       0.044033
     56 H19          6.8560    -1.8990    -1.0590 ha         1 MYX       0.174000
     57 H20          6.2520     0.3600     0.9600 ha         1 MYX       0.172000
     58 H21          8.0330     0.2080    -1.6110 ha         1 MYX       0.170000
     59 H22          7.4230     2.4770     0.3960 ha         1 MYX       0.168000
     60 H23          9.2120     2.2940    -2.1100 hc         1 MYX       0.048700
     61 H241         7.5260     4.6750    -1.1690 hc         1 MYX       0.034867
     62 H242         8.6290     4.6540    -2.5640 hc         1 MYX       0.034867
     63 H243         7.1740     3.6380    -2.5690 hc         1 MYX       0.034867
     64 H251        10.5230     2.5710    -0.0190 hc         1 MYX       0.034867
     65 H252        10.6290     4.0160    -1.0450 hc         1 MYX       0.034867
     66 H253         9.5830     4.0220     0.3930 hc         1 MYX       0.034867
@<TRIPOS>BOND
     1     1     2 2   
     2     2     3 1   
     3     2     4 1   
     4     3    34 1   
     5     3    35 1   
     6     4     5 2   
     7     4    36 1   
     8     5     6 1   
     9     5     8 1   
    10     6     7 1   
    11     7    37 1   
    12     7    38 1   
    13     7    39 1   
    14     8     9 1   
    15     8    10 1   
    16     8    40 1   
    17     9    41 1   
    18     9    42 1   
    19     9    43 1   
    20    10    11 1   
    21    10    13 1   
    22    10    44 1   
    23    11    12 1   
    24    12    45 1   
    25    12    46 1   
    26    12    47 1   
    27    13    14 2   
    28    13    48 1   
    29    14    15 1   
    30    14    49 1   
    31    15    16 2   
    32    15    17 1   
    33    16    32 1   
    34    16    50 1   
    35    17    18 2   
    36    18    19 1   
    37    18    32 1   
    38    19    20 2   
    39    19    21 1   
    40    20    33 1   
    41    20    51 1   
    42    21    22 2   
    43    22    23 1   
    44    22    33 1   
    45    23    24 1   
    46    23    25 1   
    47    23    52 1   
    48    24    53 1   
    49    24    54 1   
    50    24    55 1   
    51    25    26 2   
    52    25    56 1   
    53    26    27 1   
    54    26    57 1   
    55    27    28 2   
    56    27    58 1   
    57    28    29 1   
    58    28    59 1   
    59    29    30 1   
    60    29    31 1   
    61    29    60 1   
    62    30    61 1   
    63    30    62 1   
    64    30    63 1   
    65    31    64 1   
    66    31    65 1   
    67    31    66 1   
@<TRIPOS>SUBSTRUCTURE
     1 MYX         1 TEMP              0 ****  ****    0 ROOT
