@<TRIPOS>MOLECULE
MYZ
   41    40     1     0     0
SMALL
No Charge or Current Charge


@<TRIPOS>ATOM
      1 C1           6.2120     0.9460     0.3620 c          1 MYZ       0.717000
      2 O1           7.0050     0.0490     0.1180 o          1 MYZ      -0.744000
      3 O2           6.3590     1.7480     1.2720 o          1 MYZ      -0.744000
      4 C2           4.9290     1.0330    -0.4850 c3         1 MYZ      -0.204400
      5 C3           3.8090     0.1750     0.1510 c3         1 MYZ      -0.054400
      6 C4           2.4860     0.2130    -0.6470 c3         1 MYZ      -0.079400
      7 C5           1.3700    -0.6440    -0.0100 c3         1 MYZ      -0.074400
      8 C6           0.0480    -0.6060    -0.8090 c3         1 MYZ      -0.076400
      9 C7          -1.0680    -1.4630    -0.1710 c3         1 MYZ      -0.072400
     10 C8          -2.3890    -1.4250    -0.9660 c3         1 MYZ      -0.048200
     11 C9          -3.4720    -2.2670    -0.3160 c2         1 MYZ      -0.201200
     12 C10         -4.4450    -1.8340     0.5040 c2         1 MYZ      -0.231200
     13 C11         -4.6570    -0.4140     0.9960 c3         1 MYZ      -0.040200
     14 C12         -5.7040     0.3420     0.1520 c3         1 MYZ      -0.073400
     15 C13         -5.9330     1.7940     0.6280 c3         1 MYZ      -0.076400
     16 C14         -6.9770     2.5480    -0.2180 c3         1 MYZ      -0.088100
     17 H21C         4.5480     2.0620    -0.4990 hc         1 MYZ       0.014200
     18 H22C         5.1000     0.6120    -1.4840 hc         1 MYZ       0.014200
     19 H31C         4.1520    -0.8650     0.2290 hc         1 MYZ       0.038200
     20 H32C         3.6220     0.5260     1.1730 hc         1 MYZ       0.038200
     21 H41C         2.1420     1.2520    -0.7240 hc         1 MYZ       0.023700
     22 H42C         2.6720    -0.1400    -1.6690 hc         1 MYZ       0.023700
     23 H51C         1.7140    -1.6830     0.0670 hc         1 MYZ       0.034700
     24 H52C         1.1840    -0.2910     1.0120 hc         1 MYZ       0.034700
     25 H61C        -0.2950     0.4330    -0.8860 hc         1 MYZ       0.032200
     26 H62C         0.2350    -0.9590    -1.8310 hc         1 MYZ       0.032200
     27 H71C        -0.7260    -2.5020    -0.0930 hc         1 MYZ       0.037700
     28 H72C        -1.2550    -1.1090     0.8500 hc         1 MYZ       0.037700
     29 H81C        -2.7160    -0.3830    -1.0650 hc         1 MYZ       0.043200
     30 H82C        -2.2090    -1.7820    -1.9870 hc         1 MYZ       0.043200
     31 H9          -3.4250    -3.3240    -0.5850 ha         1 MYZ       0.163000
     32 H10         -5.1730    -2.5470     0.8970 ha         1 MYZ       0.158000
     33 H111        -4.9810    -0.4320     2.0440 hc         1 MYZ       0.043700
     34 H112        -3.7150     0.1460     0.9820 hc         1 MYZ       0.043700
     35 H121        -5.3770     0.3530    -0.8950 hc         1 MYZ       0.037200
     36 H122        -6.6540    -0.2040     0.1850 hc         1 MYZ       0.037200
     37 H131        -6.2610     1.7860     1.6750 hc         1 MYZ       0.037200
     38 H132        -4.9840     2.3420     0.5930 hc         1 MYZ       0.037200
     39 H141        -6.6600     2.6030    -1.2670 hc         1 MYZ       0.029033
     40 H142        -7.9490     2.0420    -0.1760 hc         1 MYZ       0.029033
     41 H143        -7.1050     3.5700     0.1560 hc         1 MYZ       0.029033
@<TRIPOS>BOND
     1     1     2 1   
     2     1     3 1   
     3     1     4 1   
     4     4     5 1   
     5     4    17 1   
     6     4    18 1   
     7     5     6 1   
     8     5    19 1   
     9     5    20 1   
    10     6     7 1   
    11     6    21 1   
    12     6    22 1   
    13     7     8 1   
    14     7    23 1   
    15     7    24 1   
    16     8     9 1   
    17     8    25 1   
    18     8    26 1   
    19     9    10 1   
    20     9    27 1   
    21     9    28 1   
    22    10    11 1   
    23    10    29 1   
    24    10    30 1   
    25    11    12 2   
    26    11    31 1   
    27    12    13 1   
    28    12    32 1   
    29    13    14 1   
    30    13    33 1   
    31    13    34 1   
    32    14    15 1   
    33    14    35 1   
    34    14    36 1   
    35    15    16 1   
    36    15    37 1   
    37    15    38 1   
    38    16    39 1   
    39    16    40 1   
    40    16    41 1   
@<TRIPOS>SUBSTRUCTURE
     1 MYZ         1 TEMP              0 ****  ****    0 ROOT
