@<TRIPOS>MOLECULE
MYZ
   41    40     1     0     0
SMALL
bcc


@<TRIPOS>ATOM
      1 C1           6.6490     0.5050     0.0710 c          1 MYZ       0.927600
      2 O1           6.8380    -0.5370     0.7290 o          1 MYZ      -0.849300
      3 O2           7.5210     1.3390    -0.2570 o          1 MYZ      -0.849300
      4 C2           5.2170     0.8110    -0.4010 c3         1 MYZ      -0.204400
      5 C3           4.1340    -0.1480     0.0670 c3         1 MYZ      -0.054400
      6 C4           2.7500     0.2340    -0.4440 c3         1 MYZ      -0.079400
      7 C5           1.6490    -0.7170     0.0080 c3         1 MYZ      -0.074400
      8 C6           0.2730    -0.3280    -0.5210 c3         1 MYZ      -0.076400
      9 C7          -0.8410    -1.2630    -0.0670 c3         1 MYZ      -0.072400
     10 C8          -2.2040    -0.8760    -0.6450 c3         1 MYZ      -0.048200
     11 C9          -3.2880    -1.8250    -0.2400 c2         1 MYZ      -0.151200
     12 C10         -4.4160    -1.5440     0.4120 c2         1 MYZ      -0.181200
     13 C11         -4.8970    -0.2020     0.8680 c3         1 MYZ      -0.040200
     14 C12         -6.0710     0.3020     0.0250 c3         1 MYZ      -0.073400
     15 C13         -6.6330     1.6280     0.5210 c3         1 MYZ      -0.076400
     16 C14         -7.7830     2.1400    -0.3360 c3         1 MYZ      -0.088100
     17 H21C         4.9650     1.8330    -0.0910 hc         1 MYZ       0.014200
     18 H22C         5.2230     0.8460    -1.4970 hc         1 MYZ       0.014200
     19 H31C         4.3730    -1.1630    -0.2600 hc         1 MYZ       0.038200
     20 H32C         4.1180    -0.1810     1.1610 hc         1 MYZ       0.038200
     21 H41C         2.5070     1.2510    -0.1140 hc         1 MYZ       0.023700
     22 H42C         2.7650     0.2720    -1.5400 hc         1 MYZ       0.023700
     23 H51C         1.8890    -1.7340    -0.3190 hc         1 MYZ       0.034700
     24 H52C         1.6230    -0.7490     1.1030 hc         1 MYZ       0.034700
     25 H61C         0.0400     0.6950    -0.2040 hc         1 MYZ       0.032200
     26 H62C         0.3010    -0.3060    -1.6160 hc         1 MYZ       0.032200
     27 H71C        -0.6010    -2.2900    -0.3620 hc         1 MYZ       0.037700
     28 H72C        -0.8990    -1.2640     1.0260 hc         1 MYZ       0.037700
     29 H81C        -2.4440     0.1490    -0.3550 hc         1 MYZ       0.043200
     30 H82C        -2.1270    -0.8730    -1.7380 hc         1 MYZ       0.043200
     31 H9          -3.1120    -2.8630    -0.5130 ha         1 MYZ       0.113000
     32 H10         -5.0960    -2.3680     0.6140 ha         1 MYZ       0.108000
     33 H111        -5.2190    -0.2740     1.9120 hc         1 MYZ       0.043700
     34 H112        -4.0930     0.5370     0.8460 hc         1 MYZ       0.043700
     35 H121        -5.7440     0.4080    -1.0140 hc         1 MYZ       0.037200
     36 H122        -6.8660    -0.4520     0.0190 hc         1 MYZ       0.037200
     37 H131        -6.9700     1.5140     1.5560 hc         1 MYZ       0.037200
     38 H132        -5.8330     2.3750     0.5430 hc         1 MYZ       0.037200
     39 H141        -7.4600     2.3130    -1.3650 hc         1 MYZ       0.029033
     40 H142        -8.6040     1.4220    -0.3670 hc         1 MYZ       0.029033
     41 H143        -8.1800     3.0810     0.0470 hc         1 MYZ       0.029033
@<TRIPOS>BOND
     1     1     2 1   
     2     1     3 1   
     3     1     4 1   
     4     4     5 1   
     5     4    17 1   
     6     4    18 1   
     7     5     6 1   
     8     5    19 1   
     9     5    20 1   
    10     6     7 1   
    11     6    21 1   
    12     6    22 1   
    13     7     8 1   
    14     7    23 1   
    15     7    24 1   
    16     8     9 1   
    17     8    25 1   
    18     8    26 1   
    19     9    10 1   
    20     9    27 1   
    21     9    28 1   
    22    10    11 1   
    23    10    29 1   
    24    10    30 1   
    25    11    12 2   
    26    11    31 1   
    27    12    13 1   
    28    12    32 1   
    29    13    14 1   
    30    13    33 1   
    31    13    34 1   
    32    14    15 1   
    33    14    35 1   
    34    14    36 1   
    35    15    16 1   
    36    15    37 1   
    37    15    38 1   
    38    16    39 1   
    39    16    40 1   
    40    16    41 1   
@<TRIPOS>SUBSTRUCTURE
     1 MYZ         1 TEMP              0 ****  ****    0 ROOT
