@<TRIPOS>MOLECULE
MZ1
   67    69     1     0     0
SMALL
bcc


@<TRIPOS>ATOM
      1 O26          7.3200    -0.6110     2.0970 o          1 MZ1      -0.617100
      2 C25          7.1590     0.4790     1.5630 c          1 MZ1       0.670100
      3 C27          8.2940     1.2110     0.8910 c3         1 MZ1      -0.177100
      4 N24          5.9690     1.0980     1.5100 ns         1 MZ1      -0.566900
      5 C22          4.7430     0.5150     2.0020 c3         1 MZ1       0.036700
      6 C23          4.4380     0.9230     3.4420 c3         1 MZ1      -0.104100
      7 C21          3.6180     0.9740     1.0810 c          1 MZ1       0.660100
      8 O22          3.5660     2.1280     0.6850 o          1 MZ1      -0.605100
      9 N20          2.7040     0.0350     0.7950 ns         1 MZ1      -0.553900
     10 C19          1.6530     0.2070    -0.1820 c3         1 MZ1       0.079700
     11 C32          2.0670    -0.4610    -1.5080 c3         1 MZ1      -0.055100
     12 C38          3.3720     0.0910    -2.0060 ca         1 MZ1      -0.084300
     13 C37          4.5760    -0.5280    -1.6830 ca         1 MZ1      -0.118000
     14 C36          5.7890     0.0300    -2.0670 ca         1 MZ1      -0.124000
     15 C35          5.8120     1.2120    -2.7930 ca         1 MZ1      -0.128000
     16 C34          4.6150     1.8290    -3.1360 ca         1 MZ1      -0.124000
     17 C33          3.4070     1.2730    -2.7420 ca         1 MZ1      -0.118000
     18 C17          0.3300    -0.3150     0.3970 c3         1 MZ1       0.113100
     19 O18          0.3890    -1.6820     0.7100 oh         1 MZ1      -0.587800
     20 C16         -0.8380     0.0740    -0.5140 c3         1 MZ1       0.207800
     21 N11         -2.1430    -0.4110    -0.0870 n3         1 MZ1      -0.790500
     22 S8          -2.9050     0.2200     1.2080 sy         1 MZ1       1.353200
     23 O9          -3.3630    -0.8410     2.0880 o          1 MZ1      -0.599300
     24 O10         -2.0590     1.2740     1.7380 o          1 MZ1      -0.599300
     25 C5          -4.3810     0.9650     0.5510 ca         1 MZ1      -0.333500
     26 C6          -5.6260     0.5250     0.9870 ca         1 MZ1      -0.026000
     27 C7          -6.7630     1.1330     0.5070 ca         1 MZ1       0.060900
     28 F1          -7.9660     0.7280     0.9090 f          1 MZ1      -0.114900
     29 C4          -4.3100     2.0110    -0.3550 ca         1 MZ1       0.245900
     30 F3          -3.1220     2.4300    -0.7820 f          1 MZ1      -0.117900
     31 C3          -5.4440     2.6260    -0.8430 ca         1 MZ1      -0.220000
     32 C2          -6.6700     2.1770    -0.4000 ca         1 MZ1       0.179900
     33 F2          -7.7820     2.7450    -0.8470 f          1 MZ1      -0.106900
     34 C12         -2.8280    -1.4450    -0.8610 c3         1 MZ1       0.310100
     35 C15         -2.2410    -2.8100    -0.6980 cc         1 MZ1      -0.101400
     36 C18         -2.4390    -3.7000     0.3120 cd         1 MZ1      -0.101000
     37 C14         -1.6630    -4.8830     0.1700 cd         1 MZ1      -0.144000
     38 C13         -0.8820    -4.8700    -0.9440 cc         1 MZ1      -0.098100
     39 S1          -1.0980    -3.4220    -1.8380 ss         1 MZ1      -0.136800
     40 H271         9.1530     1.2540     1.5600 hc         1 MZ1       0.060033
     41 H272         8.5990     0.6540     0.0050 hc         1 MZ1       0.060033
     42 H273         8.0400     2.2230     0.5830 hc         1 MZ1       0.060033
     43 HN24         5.8970     1.9940     1.0540 hn         1 MZ1       0.335500
     44 H22          4.8440    -0.5700     1.9550 h1         1 MZ1       0.077700
     45 H231         4.3320     2.0040     3.5280 hc         1 MZ1       0.051367
     46 H232         3.5150     0.4560     3.7880 hc         1 MZ1       0.051367
     47 H233         5.2450     0.6010     4.0990 hc         1 MZ1       0.051367
     48 HN20         2.8660    -0.9050     1.1210 hn         1 MZ1       0.322500
     49 H19          1.5400     1.2790    -0.3520 h1         1 MZ1       0.093700
     50 H321         2.1620    -1.5410    -1.3620 hc         1 MZ1       0.049200
     51 H322         1.2870    -0.3070    -2.2570 hc         1 MZ1       0.049200
     52 H37          4.5690    -1.4540    -1.1200 ha         1 MZ1       0.127000
     53 H36          6.7160    -0.4630    -1.8030 ha         1 MZ1       0.132000
     54 H35          6.7560     1.6480    -3.0940 ha         1 MZ1       0.129000
     55 H34          4.6230     2.7470    -3.7110 ha         1 MZ1       0.132000
     56 H33          2.4780     1.7670    -3.0040 ha         1 MZ1       0.127000
     57 H17          0.1930     0.1930     1.3530 h1         1 MZ1       0.107700
     58 HO18         0.3530    -2.2110    -0.0950 ho         1 MZ1       0.406000
     59 H161        -0.8420     1.1600    -0.6190 h1         1 MZ1       0.062200
     60 H162        -0.6990    -0.3170    -1.5240 h1         1 MZ1       0.062200
     61 H6          -5.7120    -0.2870     1.6970 ha         1 MZ1       0.187000
     62 H3          -5.3750     3.4390    -1.5540 ha         1 MZ1       0.177000
     63 H121        -3.8810    -1.4770    -0.5770 h1         1 MZ1       0.059200
     64 H122        -2.8190    -1.1410    -1.9100 h1         1 MZ1       0.059200
     65 H18         -3.1110    -3.5140     1.1370 ha         1 MZ1       0.174000
     66 H14         -1.6880    -5.7080     0.8680 ha         1 MZ1       0.160000
     67 H13         -0.2080    -5.6340    -1.2970 h4         1 MZ1       0.172000
@<TRIPOS>BOND
     1     1     2 2   
     2     2     3 1   
     3     2     4 1   
     4     3    40 1   
     5     3    41 1   
     6     3    42 1   
     7     4     5 1   
     8     4    43 1   
     9     5     6 1   
    10     5     7 1   
    11     5    44 1   
    12     6    45 1   
    13     6    46 1   
    14     6    47 1   
    15     7     8 2   
    16     7     9 1   
    17     9    10 1   
    18     9    48 1   
    19    10    11 1   
    20    10    18 1   
    21    10    49 1   
    22    11    12 1   
    23    11    50 1   
    24    11    51 1   
    25    12    13 ar  
    26    12    17 ar  
    27    13    14 ar  
    28    13    52 1   
    29    14    15 ar  
    30    14    53 1   
    31    15    16 ar  
    32    15    54 1   
    33    16    17 ar  
    34    16    55 1   
    35    17    56 1   
    36    18    19 1   
    37    18    20 1   
    38    18    57 1   
    39    19    58 1   
    40    20    21 1   
    41    20    59 1   
    42    20    60 1   
    43    21    22 1   
    44    21    34 1   
    45    22    23 2   
    46    22    24 2   
    47    22    25 1   
    48    25    26 ar  
    49    25    29 ar  
    50    26    27 ar  
    51    26    61 1   
    52    27    28 1   
    53    27    32 ar  
    54    29    30 1   
    55    29    31 ar  
    56    31    32 ar  
    57    31    62 1   
    58    32    33 1   
    59    34    35 1   
    60    34    63 1   
    61    34    64 1   
    62    35    36 2   
    63    35    39 1   
    64    36    37 1   
    65    36    65 1   
    66    37    38 2   
    67    37    66 1   
    68    38    39 1   
    69    38    67 1   
@<TRIPOS>SUBSTRUCTURE
     1 MZ1         1 TEMP              0 ****  ****    0 ROOT
