@<TRIPOS>MOLECULE
MZ1
   67    69     1     0     0
SMALL
No Charge or Current Charge


@<TRIPOS>ATOM
      1 O26          7.0680     0.2490     3.5550 o          1 MZ1      -0.617100
      2 C25          7.0790     1.1690     2.7500 c          1 MZ1       0.603100
      3 C27          8.3200     2.0100     2.4820 c3         1 MZ1      -0.177100
      4 N24          5.9740     1.5210     2.0110 ns         1 MZ1      -0.499900
      5 C22          4.6510     0.8620     2.0830 c3         1 MZ1       0.036700
      6 C23          3.8890     1.2950     3.3580 c3         1 MZ1      -0.104100
      7 C21          3.8300     1.1490     0.7920 c          1 MZ1       0.593100
      8 O22          4.1710     1.9770    -0.0460 o          1 MZ1      -0.605100
      9 N20          2.6800     0.3990     0.6550 ns         1 MZ1      -0.486900
     10 C19          1.7880     0.4110    -0.5130 c3         1 MZ1       0.079700
     11 C32          1.9960    -0.8840    -1.3520 c3         1 MZ1      -0.055100
     12 C38          3.4620    -1.1460    -1.6850 ca         1 MZ1      -0.084300
     13 C37          4.1940    -2.1150    -0.9710 ca         1 MZ1      -0.100000
     14 C36          5.5500    -2.3390    -1.2660 ca         1 MZ1      -0.106000
     15 C35          6.1820    -1.5980    -2.2790 ca         1 MZ1      -0.110000
     16 C34          5.4560    -0.6310    -2.9960 ca         1 MZ1      -0.106000
     17 C33          4.1000    -0.4060    -2.7000 ca         1 MZ1      -0.100000
     18 C17          0.3200     0.6730    -0.0530 c3         1 MZ1       0.136300
     19 O18         -0.1730    -0.4160     0.7440 oh         1 MZ1      -0.650000
     20 C16         -0.6990     0.9050    -1.2040 c3         1 MZ1       0.207800
     21 N11         -2.1020     0.6000    -0.7880 n3         1 MZ1      -0.790500
     22 S8          -2.9260     1.9400    -0.1370 sy         1 MZ1       1.211600
     23 O9          -2.1040     2.3990     0.9850 o          1 MZ1      -0.528500
     24 O10         -3.2630     2.8210    -1.2580 o          1 MZ1      -0.528500
     25 C5          -4.3780     1.1590     0.5720 ca         1 MZ1      -0.333500
     26 C6          -4.2150     0.3770     1.7390 ca         1 MZ1      -0.008000
     27 C7          -5.3220    -0.2610     2.3210 ca         1 MZ1       0.096000
     28 F1          -5.1560    -1.0080     3.4370 f          1 MZ1      -0.150000
     29 C4          -5.6580     1.2880    -0.0040 ca         1 MZ1       0.281000
     30 F3          -5.8630     2.0080    -1.1270 f          1 MZ1      -0.153000
     31 C3          -6.7620     0.6490     0.5810 ca         1 MZ1      -0.202000
     32 C2          -6.5950    -0.1220     1.7400 ca         1 MZ1       0.215000
     33 F2          -7.6680    -0.7340     2.2920 f          1 MZ1      -0.142000
     34 C12         -2.8800    -0.1070    -1.8250 c3         1 MZ1       0.310100
     35 C15         -2.2790    -1.4490    -2.1410 cc         1 MZ1      -0.246300
     36 C18         -2.1000    -2.5140    -1.2930 cd         1 MZ1      -0.083000
     37 C14         -1.4760    -3.6300    -1.9100 cd         1 MZ1      -0.126000
     38 C13         -1.1770    -3.4290    -3.2330 cc         1 MZ1      -0.225000
     39 S1          -1.6790    -1.8240    -3.7540 ss         1 MZ1       0.153000
     40 H271         9.1790     1.6990     3.0860 hc         1 MZ1       0.060033
     41 H272         8.5460     1.9810     1.4100 hc         1 MZ1       0.060033
     42 H273         8.0750     3.0670     2.6390 hc         1 MZ1       0.060033
     43 HN24         6.0910     2.2810     1.3490 hn         1 MZ1       0.335500
     44 H22          4.8070    -0.2250     2.1190 h1         1 MZ1       0.077700
     45 H231         3.6970     2.3750     3.3450 hc         1 MZ1       0.051367
     46 H232         2.9260     0.7770     3.4350 hc         1 MZ1       0.051367
     47 H233         4.4680     1.0600     4.2580 hc         1 MZ1       0.051367
     48 HN20         2.4610    -0.2470     1.4040 hn         1 MZ1       0.322500
     49 H19          2.0740     1.2580    -1.1520 h1         1 MZ1       0.093700
     50 H321         1.5810    -1.7410    -0.8080 hc         1 MZ1       0.049200
     51 H322         1.4270    -0.8200    -2.2870 hc         1 MZ1       0.049200
     52 H37          3.7150    -2.6900    -0.1820 ha         1 MZ1       0.109000
     53 H36          6.1110    -3.0870    -0.7090 ha         1 MZ1       0.114000
     54 H35          7.2310    -1.7710    -2.5070 ha         1 MZ1       0.111000
     55 H34          5.9440    -0.0560    -3.7790 ha         1 MZ1       0.114000
     56 H33          3.5470     0.3480    -3.2550 ha         1 MZ1       0.109000
     57 H17          0.3270     1.5900     0.5520 h1         1 MZ1       0.107700
     58 HO18        -1.1130    -0.4790     0.4430 ho         1 MZ1       0.445000
     59 H161        -0.6020     1.9330    -1.5790 h1         1 MZ1       0.062200
     60 H162        -0.4090     0.2620    -2.0420 h1         1 MZ1       0.062200
     61 H6          -3.2340     0.2560     2.1970 ha         1 MZ1       0.169000
     62 H3          -7.7460     0.7500     0.1330 ha         1 MZ1       0.159000
     63 H121        -3.9100    -0.2900    -1.4950 h1         1 MZ1       0.059200
     64 H122        -2.9370     0.4950    -2.7420 h1         1 MZ1       0.059200
     65 H18         -2.4000    -2.5010    -0.2490 ha         1 MZ1       0.156000
     66 H14         -1.2540    -4.5540    -1.3830 ha         1 MZ1       0.142000
     67 H13         -0.7040    -4.0990    -3.9400 h4         1 MZ1       0.154000
@<TRIPOS>BOND
     1     1     2 2   
     2     2     3 1   
     3     2     4 1   
     4     3    40 1   
     5     3    41 1   
     6     3    42 1   
     7     4     5 1   
     8     4    43 1   
     9     5     6 1   
    10     5     7 1   
    11     5    44 1   
    12     6    45 1   
    13     6    46 1   
    14     6    47 1   
    15     7     8 2   
    16     7     9 1   
    17     9    10 1   
    18     9    48 1   
    19    10    11 1   
    20    10    18 1   
    21    10    49 1   
    22    11    12 1   
    23    11    50 1   
    24    11    51 1   
    25    12    13 ar  
    26    12    17 ar  
    27    13    14 ar  
    28    13    52 1   
    29    14    15 ar  
    30    14    53 1   
    31    15    16 ar  
    32    15    54 1   
    33    16    17 ar  
    34    16    55 1   
    35    17    56 1   
    36    18    19 1   
    37    18    20 1   
    38    18    57 1   
    39    19    58 1   
    40    20    21 1   
    41    20    59 1   
    42    20    60 1   
    43    21    22 1   
    44    21    34 1   
    45    22    23 2   
    46    22    24 2   
    47    22    25 1   
    48    25    26 ar  
    49    25    29 ar  
    50    26    27 ar  
    51    26    61 1   
    52    27    28 1   
    53    27    32 ar  
    54    29    30 1   
    55    29    31 ar  
    56    31    32 ar  
    57    31    62 1   
    58    32    33 1   
    59    34    35 1   
    60    34    63 1   
    61    34    64 1   
    62    35    36 2   
    63    35    39 1   
    64    36    37 1   
    65    36    65 1   
    66    37    38 2   
    67    37    66 1   
    68    38    39 1   
    69    38    67 1   
@<TRIPOS>SUBSTRUCTURE
     1 MZ1         1 TEMP              0 ****  ****    0 ROOT
