@<TRIPOS>MOLECULE
MZ2
   64    66     1     0     0
SMALL
No Charge or Current Charge


@<TRIPOS>ATOM
      1 F26         25.2340    26.3240    13.1870 f          1 MZ2      -0.112000
      2 C25         24.6890    26.4850    11.9590 c3         1 MZ2       0.316200
      3 F28         25.7120    26.7470    11.1120 f          1 MZ2      -0.112000
      4 F27         24.1660    25.2910    11.6000 f          1 MZ2      -0.112000
      5 C23         23.6250    27.5880    11.9310 c2         1 MZ2      -0.127400
      6 C24         23.2370    27.9920    10.5090 c3         1 MZ2      -0.063900
      7 C22         23.0830    28.1350    13.0560 ce         1 MZ2      -0.237200
      8 C21         22.0180    29.1770    13.1100 c          1 MZ2       0.606300
      9 O22         21.8680    30.0440    12.2620 o          1 MZ2      -0.587100
     10 N20         21.1540    29.0210    14.1710 ns         1 MZ2      -0.491900
     11 C19         19.9220    29.7970    14.3810 c3         1 MZ2       0.084700
     12 C32         18.6890    29.0070    13.8580 c3         1 MZ2      -0.062100
     13 C38         18.8250    28.5970    12.3950 ca         1 MZ2      -0.081300
     14 C37         18.5480    29.5260    11.3730 ca         1 MZ2      -0.099500
     15 C36         18.6920    29.1590    10.0230 ca         1 MZ2      -0.108500
     16 C35         19.1150    27.8610     9.6880 ca         1 MZ2      -0.110000
     17 C34         19.3920    26.9300    10.7030 ca         1 MZ2      -0.108500
     18 C33         19.2460    27.2970    12.0520 ca         1 MZ2      -0.099500
     19 C17         19.8240    30.2660    15.8660 c3         1 MZ2       0.146300
     20 O18         19.7340    29.1240    16.7510 oh         1 MZ2      -0.662000
     21 C16         18.6460    31.2540    16.1370 c3         1 MZ2       0.203800
     22 N11         18.5750    32.4570    15.2510 n3         1 MZ2      -0.793500
     23 S8          16.9900    33.0230    14.9540 sy         1 MZ2       1.228600
     24 O9          17.1220    34.0610    13.9270 o          1 MZ2      -0.536000
     25 O10         16.1640    31.8390    14.6970 o          1 MZ2      -0.536000
     26 C5          16.5300    33.7790    16.5180 ca         1 MZ2      -0.336500
     27 C6          16.6930    35.1760    16.6840 ca         1 MZ2      -0.005000
     28 C7          16.3420    35.7880    17.8980 ca         1 MZ2       0.099000
     29 F1          16.5040    37.1230    18.0470 f          1 MZ2      -0.150000
     30 C4          16.0060    33.0140    17.5800 ca         1 MZ2       0.270000
     31 F3          15.8310    31.6800    17.4710 f          1 MZ2      -0.163000
     32 C3          15.6570    33.6300    18.7900 ca         1 MZ2      -0.192000
     33 C2          15.8250    35.0120    18.9500 ca         1 MZ2       0.212000
     34 F2          15.4850    35.5930    20.1240 f          1 MZ2      -0.144000
     35 C12         19.4870    33.5540    15.6520 c3         1 MZ2       0.305100
     36 C15         20.9440    33.2290    15.5050 cc         1 MZ2      -0.268300
     37 C18         21.8870    33.0860    16.4940 cd         1 MZ2      -0.116000
     38 C14         23.1830    32.7850    15.9990 cd         1 MZ2      -0.145000
     39 C13         23.2420    32.7140    14.6300 cc         1 MZ2      -0.225000
     40 S1          21.6700    33.0510    13.9100 ss         1 MZ2       0.279000
     41 H241        23.8220    28.8560    10.1730 hc         1 MZ2       0.068700
     42 H242        23.4010    27.1810     9.7890 hc         1 MZ2       0.068700
     43 H243        22.1760    28.2550    10.4340 hc         1 MZ2       0.068700
     44 H22         23.3460    27.7260    14.0290 ha         1 MZ2       0.196000
     45 HN20        21.3540    28.2680    14.8170 hn         1 MZ2       0.316500
     46 H19         19.9900    30.7080    13.7720 h1         1 MZ2       0.099700
     47 H321        18.5330    28.1160    14.4780 hc         1 MZ2       0.059700
     48 H322        17.7880    29.6200    13.9750 hc         1 MZ2       0.059700
     49 H37         18.2280    30.5340    11.6250 ha         1 MZ2       0.112000
     50 H36         18.4800    29.8810     9.2390 ha         1 MZ2       0.112500
     51 H35         19.2280    27.5780     8.6440 ha         1 MZ2       0.111000
     52 H34         19.7220    25.9270    10.4450 ha         1 MZ2       0.112500
     53 H33         19.4700    26.5720    12.8320 ha         1 MZ2       0.112000
     54 H17         20.7550    30.7960    16.0880 h1         1 MZ2       0.098700
     55 HO18        18.9280    28.6200    16.5080 ho         1 MZ2       0.442000
     56 H161        17.7360    30.6500    16.0480 h1         1 MZ2       0.066200
     57 H162        18.6920    31.5680    17.1890 h1         1 MZ2       0.066200
     58 H6          17.0890    35.7960    15.8800 ha         1 MZ2       0.169000
     59 H3          15.2570    33.0340    19.6050 ha         1 MZ2       0.160000
     60 H121        19.3130    34.4490    15.0390 h1         1 MZ2       0.058200
     61 H122        19.2950    33.8490    16.6930 h1         1 MZ2       0.058200
     62 H18         21.6620    33.1790    17.5530 ha         1 MZ2       0.128000
     63 H14         24.0440    32.6250    16.6410 ha         1 MZ2       0.135000
     64 H13         24.0860    32.5000    13.9880 h4         1 MZ2       0.155000
@<TRIPOS>BOND
     1     1     2 1   
     2     2     3 1   
     3     2     4 1   
     4     2     5 1   
     5     5     6 1   
     6     5     7 2   
     7     6    41 1   
     8     6    42 1   
     9     6    43 1   
    10     7     8 1   
    11     7    44 1   
    12     8     9 2   
    13     8    10 1   
    14    10    11 1   
    15    10    45 1   
    16    11    12 1   
    17    11    19 1   
    18    11    46 1   
    19    12    13 1   
    20    12    47 1   
    21    12    48 1   
    22    13    14 ar  
    23    13    18 ar  
    24    14    15 ar  
    25    14    49 1   
    26    15    16 ar  
    27    15    50 1   
    28    16    17 ar  
    29    16    51 1   
    30    17    18 ar  
    31    17    52 1   
    32    18    53 1   
    33    19    20 1   
    34    19    21 1   
    35    19    54 1   
    36    20    55 1   
    37    21    22 1   
    38    21    56 1   
    39    21    57 1   
    40    22    23 1   
    41    22    35 1   
    42    23    24 2   
    43    23    25 2   
    44    23    26 1   
    45    26    27 ar  
    46    26    30 ar  
    47    27    28 ar  
    48    27    58 1   
    49    28    29 1   
    50    28    33 ar  
    51    30    31 1   
    52    30    32 ar  
    53    32    33 ar  
    54    32    59 1   
    55    33    34 1   
    56    35    36 1   
    57    35    60 1   
    58    35    61 1   
    59    36    37 2   
    60    36    40 1   
    61    37    38 1   
    62    37    62 1   
    63    38    39 2   
    64    38    63 1   
    65    39    40 1   
    66    39    64 1   
@<TRIPOS>SUBSTRUCTURE
     1 MZ2         1 TEMP              0 ****  ****    0 ROOT
