@<TRIPOS>MOLECULE
MZ2
   64    66     1     0     0
SMALL
abcg2


@<TRIPOS>ATOM
      1 F26         24.8180    26.0470    12.8930 f          1 MZ2      -0.112000
      2 C25         24.3850    26.5050    11.7050 c3         1 MZ2       0.316200
      3 F28         25.4880    26.8380    10.9910 f          1 MZ2      -0.112000
      4 F27         23.8220    25.4490    11.0630 f          1 MZ2      -0.112000
      5 C23         23.4210    27.6620    11.7940 c2         1 MZ2      -0.127400
      6 C24         23.0560    28.2500    10.4650 c3         1 MZ2      -0.063900
      7 C22         22.9660    28.0170    12.9960 ce         1 MZ2      -0.237200
      8 C21         21.9710    29.1010    13.2380 c          1 MZ2       0.606300
      9 O22         21.8550    30.0870    12.5120 o          1 MZ2      -0.587100
     10 N20         21.2160    28.8910    14.3400 ns         1 MZ2      -0.491900
     11 C19         20.0140    29.6460    14.6560 c3         1 MZ2       0.084700
     12 C32         18.7650    28.8870    14.1560 c3         1 MZ2      -0.062100
     13 C38         18.7900    28.6880    12.6650 ca         1 MZ2      -0.081300
     14 C37         18.3580    29.7030    11.8100 ca         1 MZ2      -0.099500
     15 C36         18.4440    29.5550    10.4310 ca         1 MZ2      -0.108500
     16 C35         18.9670    28.3850     9.8840 ca         1 MZ2      -0.110000
     17 C34         19.3930    27.3650    10.7270 ca         1 MZ2      -0.108500
     18 C33         19.3010    27.5160    12.1070 ca         1 MZ2      -0.099500
     19 C17         19.9980    29.9280    16.1640 c3         1 MZ2       0.146300
     20 O18         19.9700    28.7250    16.9330 oh         1 MZ2      -0.662000
     21 C16         18.8590    30.8440    16.6250 c3         1 MZ2       0.203800
     22 N11         18.8990    32.1720    16.0050 n3         1 MZ2      -0.793500
     23 S8          17.6590    32.7540    15.1310 sy         1 MZ2       1.228600
     24 O9          18.1940    33.6670    14.1530 o          1 MZ2      -0.536000
     25 O10         16.8540    31.6400    14.6990 o          1 MZ2      -0.536000
     26 C5          16.6670    33.7530    16.2250 ca         1 MZ2      -0.336500
     27 C6          16.5110    35.1120    15.9610 ca         1 MZ2      -0.005000
     28 C7          15.7220    35.8790    16.7910 ca         1 MZ2       0.099000
     29 F1          15.5550    37.1890    16.5500 f          1 MZ2      -0.150000
     30 C4          16.0240    33.2050    17.3300 ca         1 MZ2       0.270000
     31 F3          16.1730    31.8980    17.6050 f          1 MZ2      -0.163000
     32 C3          15.2300    33.9620    18.1690 ca         1 MZ2      -0.192000
     33 C2          15.0850    35.3070    17.8850 ca         1 MZ2       0.212000
     34 F2          14.3230    36.0770    18.6710 f          1 MZ2      -0.144000
     35 C12         19.8750    33.1520    16.5250 c3         1 MZ2       0.305100
     36 C15         21.2170    33.0850    15.8690 cc         1 MZ2      -0.268300
     37 C18         22.3950    32.6960    16.4450 cd         1 MZ2      -0.116000
     38 C14         23.5010    32.7420    15.5500 cd         1 MZ2      -0.145000
     39 C13         23.1430    33.1700    14.3040 cc         1 MZ2      -0.225000
     40 S1          21.4610    33.5200    14.2110 ss         1 MZ2       0.279000
     41 H241        23.8820    28.8520    10.0790 hc         1 MZ2       0.068700
     42 H242        22.8640    27.4570     9.7410 hc         1 MZ2       0.068700
     43 H243        22.1800    28.8820    10.5510 hc         1 MZ2       0.068700
     44 H22         23.2880    27.4650    13.8700 ha         1 MZ2       0.196000
     45 HN20        21.3440    28.0280    14.8480 hn         1 MZ2       0.316500
     46 H19         20.0870    30.5980    14.1340 h1         1 MZ2       0.099700
     47 H321        18.7190    27.9160    14.6540 hc         1 MZ2       0.059700
     48 H322        17.8780    29.4520    14.4370 hc         1 MZ2       0.059700
     49 H37         17.9620    30.6190    12.2320 ha         1 MZ2       0.112000
     50 H36         18.1060    30.3530     9.7810 ha         1 MZ2       0.112500
     51 H35         19.0410    28.2710     8.8100 ha         1 MZ2       0.111000
     52 H34         19.8040    26.4520    10.3120 ha         1 MZ2       0.112500
     53 H33         19.6390    26.7200    12.7600 ha         1 MZ2       0.112000
     54 H17         20.9520    30.3900    16.4110 h1         1 MZ2       0.098700
     55 HO18        19.1030    28.3060    16.8430 ho         1 MZ2       0.442000
     56 H161        17.9010    30.3820    16.4060 h1         1 MZ2       0.066200
     57 H162        18.9350    30.9590    17.7090 h1         1 MZ2       0.066200
     58 H6          17.0000    35.5650    15.1110 ha         1 MZ2       0.169000
     59 H3          14.7380    33.5180    19.0230 ha         1 MZ2       0.160000
     60 H121        19.4490    34.1500    16.4240 h1         1 MZ2       0.058200
     61 H122        19.9970    32.9630    17.5920 h1         1 MZ2       0.058200
     62 H18         22.4610    32.3790    17.4770 ha         1 MZ2       0.128000
     63 H14         24.5100    32.4660    15.8200 ha         1 MZ2       0.135000
     64 H13         23.7680    33.2920    13.4330 h4         1 MZ2       0.155000
@<TRIPOS>BOND
     1     1     2 1   
     2     2     3 1   
     3     2     4 1   
     4     2     5 1   
     5     5     6 1   
     6     5     7 2   
     7     6    41 1   
     8     6    42 1   
     9     6    43 1   
    10     7     8 1   
    11     7    44 1   
    12     8     9 2   
    13     8    10 1   
    14    10    11 1   
    15    10    45 1   
    16    11    12 1   
    17    11    19 1   
    18    11    46 1   
    19    12    13 1   
    20    12    47 1   
    21    12    48 1   
    22    13    14 ar  
    23    13    18 ar  
    24    14    15 ar  
    25    14    49 1   
    26    15    16 ar  
    27    15    50 1   
    28    16    17 ar  
    29    16    51 1   
    30    17    18 ar  
    31    17    52 1   
    32    18    53 1   
    33    19    20 1   
    34    19    21 1   
    35    19    54 1   
    36    20    55 1   
    37    21    22 1   
    38    21    56 1   
    39    21    57 1   
    40    22    23 1   
    41    22    35 1   
    42    23    24 2   
    43    23    25 2   
    44    23    26 1   
    45    26    27 ar  
    46    26    30 ar  
    47    27    28 ar  
    48    27    58 1   
    49    28    29 1   
    50    28    33 ar  
    51    30    31 1   
    52    30    32 ar  
    53    32    33 ar  
    54    32    59 1   
    55    33    34 1   
    56    35    36 1   
    57    35    60 1   
    58    35    61 1   
    59    36    37 2   
    60    36    40 1   
    61    37    38 1   
    62    37    62 1   
    63    38    39 2   
    64    38    63 1   
    65    39    40 1   
    66    39    64 1   
@<TRIPOS>SUBSTRUCTURE
     1 MZ2         1 TEMP              0 ****  ****    0 ROOT
