@<TRIPOS>MOLECULE
MZ3
   71    74     1     0     0
SMALL
No Charge or Current Charge


@<TRIPOS>ATOM
      1 F29         26.0600    26.6390    11.7640 f          1 MZ3      -0.185000
      2 C26         24.8120    26.5910    12.2840 ca         1 MZ3       0.150000
      3 C25         24.3740    25.3820    12.8380 ca         1 MZ3      -0.131000
      4 C24         23.0890    25.2900    13.3860 ca         1 MZ3      -0.097000
      5 C23         22.2420    26.4080    13.3740 ca         1 MZ3      -0.103000
      6 C27         23.9760    27.7340    12.2670 ca         1 MZ3      -0.059300
      7 C28         24.5200    29.0450    11.6860 c3         1 MZ3      -0.047800
      8 C22         22.6610    27.6440    12.8170 ca         1 MZ3      -0.121600
      9 C21         21.6890    28.8160    12.8080 c          1 MZ3       0.612700
     10 O22         21.7090    29.7010    11.9640 o          1 MZ3      -0.589100
     11 N20         20.7260    28.7920    13.7940 ns         1 MZ3      -0.501900
     12 C19         19.6220    29.7530    13.9330 c3         1 MZ3       0.126700
     13 C32         18.3020    29.1400    13.3900 c3         1 MZ3      -0.048100
     14 C38         18.4170    28.6660    11.9450 ca         1 MZ3      -0.076300
     15 C37         18.3330    29.5950    10.8900 ca         1 MZ3      -0.099500
     16 C36         18.4530    29.1660     9.5570 ca         1 MZ3      -0.108500
     17 C35         18.6600    27.8050     9.2710 ca         1 MZ3      -0.108000
     18 C34         18.7450    26.8740    10.3200 ca         1 MZ3      -0.108500
     19 C33         18.6230    27.3030    11.6530 ca         1 MZ3      -0.099500
     20 C17         19.5420    30.2680    15.4040 c3         1 MZ3       0.152300
     21 O18         19.2020    29.1820    16.2940 oh         1 MZ3      -0.670000
     22 C16         18.5400    31.4510    15.5930 c3         1 MZ3       0.189800
     23 N11         18.7230    32.6260    14.6860 n3         1 MZ3      -0.763500
     24 C12         19.7660    33.5780    15.1420 c3         1 MZ3       0.297100
     25 C15         21.1520    33.0040    15.1940 cc         1 MZ3      -0.250300
     26 C18         21.9230    32.7500    16.3020 cd         1 MZ3      -0.125000
     27 C14         23.2010    32.2140    15.9900 cd         1 MZ3      -0.146000
     28 C13         23.4180    32.0710    14.6430 cc         1 MZ3      -0.222000
     29 S1          22.0280    32.6230    13.7140 ss         1 MZ3       0.273000
     30 S8          17.2530    33.4090    14.2990 sy         1 MZ3       1.196600
     31 O9          17.6080    34.5920    13.5060 o          1 MZ3      -0.538000
     32 O10         16.3780    32.3750    13.7350 o          1 MZ3      -0.538000
     33 C5          16.6340    33.9290    15.9160 ca         1 MZ3      -0.274500
     34 C6          17.0010    35.1860    16.4450 ca         1 MZ3      -0.053000
     35 C7          16.5310    35.5980    17.7050 ca         1 MZ3       0.121100
     36 O19         16.9300    36.8360    18.1700 os         1 MZ3      -0.346100
     37 C20         16.5070    37.3500    19.4460 c3         1 MZ3       0.147900
     38 C2          15.6810    34.7460    18.4440 ca         1 MZ3      -0.144000
     39 C3          15.3070    33.4980    17.9170 ca         1 MZ3      -0.090000
     40 C4          15.7780    33.0880    16.6580 ca         1 MZ3      -0.059000
     41 H25         25.0320    24.5160    12.8410 ha         1 MZ3       0.133000
     42 H24         22.7450    24.3500    13.8120 ha         1 MZ3       0.120000
     43 H23         21.2410    26.2880    13.7810 ha         1 MZ3       0.123000
     44 H281        25.6070    29.0310    11.5490 hc         1 MZ3       0.056033
     45 H282        24.0730    29.2560    10.7080 hc         1 MZ3       0.056033
     46 H283        24.3070    29.8920    12.3490 hc         1 MZ3       0.056033
     47 HN20        20.7890    28.0500    14.4770 hn         1 MZ3       0.320500
     48 H19         19.8480    30.6270    13.3080 h1         1 MZ3       0.100700
     49 H321        17.9980    28.3060    14.0340 hc         1 MZ3       0.065200
     50 H322        17.4990    29.8820    13.4600 hc         1 MZ3       0.065200
     51 H37         18.1790    30.6500    11.1040 ha         1 MZ3       0.110500
     52 H36         18.3890    29.8880     8.7460 ha         1 MZ3       0.108500
     53 H35         18.7540    27.4740     8.2400 ha         1 MZ3       0.108000
     54 H34         18.9060    25.8210    10.1010 ha         1 MZ3       0.108500
     55 H33         18.6950    26.5760    12.4590 ha         1 MZ3       0.110500
     56 H17         20.5430    30.6230    15.6670 h1         1 MZ3       0.052700
     57 HO18        19.4560    29.4560    17.2030 ho         1 MZ3       0.443000
     58 H161        17.5420    31.0170    15.4600 h1         1 MZ3       0.057200
     59 H162        18.5810    31.7830    16.6400 h1         1 MZ3       0.057200
     60 H121        19.8240    34.4450    14.4710 h1         1 MZ3       0.058200
     61 H122        19.5130    33.9690    16.1370 h1         1 MZ3       0.058200
     62 H18         21.5860    32.9300    17.3190 ha         1 MZ3       0.122000
     63 H14         23.9350    31.9450    16.7440 ha         1 MZ3       0.132000
     64 H13         24.2910    31.6950    14.1250 h4         1 MZ3       0.154000
     65 H6          17.6530    35.8530    15.8850 ha         1 MZ3       0.148000
     66 H201        16.8380    36.6930    20.2610 h1         1 MZ3       0.045700
     67 H202        16.9380    38.3450    19.6170 h1         1 MZ3       0.045700
     68 H203        15.4140    37.4420    19.4880 h1         1 MZ3       0.045700
     69 H2          15.3010    35.0340    19.4200 ha         1 MZ3       0.121000
     70 H3          14.6490    32.8440    18.4860 ha         1 MZ3       0.119000
     71 H4          15.4740    32.1190    16.2660 ha         1 MZ3       0.137000
@<TRIPOS>BOND
     1     1     2 1   
     2     2     3 ar  
     3     2     6 ar  
     4     3     4 ar  
     5     3    41 1   
     6     4     5 ar  
     7     4    42 1   
     8     5     8 ar  
     9     5    43 1   
    10     6     7 1   
    11     6     8 ar  
    12     7    44 1   
    13     7    45 1   
    14     7    46 1   
    15     8     9 1   
    16     9    10 2   
    17     9    11 1   
    18    11    12 1   
    19    11    47 1   
    20    12    13 1   
    21    12    20 1   
    22    12    48 1   
    23    13    14 1   
    24    13    49 1   
    25    13    50 1   
    26    14    15 ar  
    27    14    19 ar  
    28    15    16 ar  
    29    15    51 1   
    30    16    17 ar  
    31    16    52 1   
    32    17    18 ar  
    33    17    53 1   
    34    18    19 ar  
    35    18    54 1   
    36    19    55 1   
    37    20    21 1   
    38    20    22 1   
    39    20    56 1   
    40    21    57 1   
    41    22    23 1   
    42    22    58 1   
    43    22    59 1   
    44    23    24 1   
    45    23    30 1   
    46    24    25 1   
    47    24    60 1   
    48    24    61 1   
    49    25    26 2   
    50    25    29 1   
    51    26    27 1   
    52    26    62 1   
    53    27    28 2   
    54    27    63 1   
    55    28    29 1   
    56    28    64 1   
    57    30    31 2   
    58    30    32 2   
    59    30    33 1   
    60    33    34 ar  
    61    33    40 ar  
    62    34    35 ar  
    63    34    65 1   
    64    35    36 1   
    65    35    38 ar  
    66    36    37 1   
    67    37    66 1   
    68    37    67 1   
    69    37    68 1   
    70    38    39 ar  
    71    38    69 1   
    72    39    40 ar  
    73    39    70 1   
    74    40    71 1   
@<TRIPOS>SUBSTRUCTURE
     1 MZ3         1 TEMP              0 ****  ****    0 ROOT
