@<TRIPOS>MOLECULE
MZ3
   71    74     1     0     0
SMALL
abcg2


@<TRIPOS>ATOM
      1 F29         26.1030    26.6420    12.8650 f          1 MZ3      -0.185000
      2 C26         24.7500    26.5020    12.8860 ca         1 MZ3       0.150000
      3 C25         24.2380    25.2180    12.8490 ca         1 MZ3      -0.131000
      4 C24         22.8590    25.0560    12.8820 ca         1 MZ3      -0.097000
      5 C23         22.0370    26.1740    12.9520 ca         1 MZ3      -0.103000
      6 C27         23.9730    27.6530    12.9490 ca         1 MZ3      -0.059300
      7 C28         24.6230    29.0070    13.0100 c3         1 MZ3      -0.047800
      8 C22         22.5830    27.4580    12.9770 ca         1 MZ3      -0.121600
      9 C21         21.6580    28.6430    12.9820 c          1 MZ3       0.612700
     10 O22         21.7480    29.5310    12.1340 o          1 MZ3      -0.589100
     11 N20         20.7430    28.6350    13.9680 ns         1 MZ3      -0.501900
     12 C19         19.6980    29.6300    14.1480 c3         1 MZ3       0.126700
     13 C32         18.3410    29.1030    13.6430 c3         1 MZ3      -0.048100
     14 C38         18.3550    28.8430    12.1610 ca         1 MZ3      -0.076300
     15 C37         18.1720    29.8970    11.2620 ca         1 MZ3      -0.099500
     16 C36         18.2380    29.6810     9.8910 ca         1 MZ3      -0.108500
     17 C35         18.4900    28.4040     9.3950 ca         1 MZ3      -0.108000
     18 C34         18.6660    27.3460    10.2810 ca         1 MZ3      -0.108500
     19 C33         18.5940    27.5670    11.6540 ca         1 MZ3      -0.099500
     20 C17         19.6880    30.0320    15.6230 c3         1 MZ3       0.152300
     21 O18         19.3700    28.8690    16.3930 oh         1 MZ3      -0.670000
     22 C16         18.6840    31.1340    15.9690 c3         1 MZ3       0.189800
     23 N11         18.9320    32.3760    15.2300 n3         1 MZ3      -0.763500
     24 C12         20.1030    33.1750    15.6460 c3         1 MZ3       0.297100
     25 C15         21.3010    32.9840    14.7700 cc         1 MZ3      -0.250300
     26 C18         22.5330    32.5280    15.1460 cd         1 MZ3      -0.125000
     27 C14         23.4790    32.5190    14.0820 cd         1 MZ3      -0.146000
     28 C13         22.9450    32.9650    12.9080 cc         1 MZ3      -0.222000
     29 S1          21.2900    33.4030    13.0890 ss         1 MZ3       0.273000
     30 S8          17.6410    33.1790    14.6110 sy         1 MZ3       1.196600
     31 O9          18.1720    34.2800    13.8440 o          1 MZ3      -0.538000
     32 O10         16.7980    32.2010    13.9670 o          1 MZ3      -0.538000
     33 C5          16.7390    33.8440    15.9860 ca         1 MZ3      -0.274500
     34 C6          17.0820    35.0990    16.4650 ca         1 MZ3      -0.053000
     35 C7          16.4180    35.6070    17.5840 ca         1 MZ3       0.121100
     36 O19         16.8070    36.8400    17.9910 os         1 MZ3      -0.346100
     37 C20         16.1380    37.4290    19.1080 c3         1 MZ3       0.147900
     38 C2          15.4200    34.8500    18.2020 ca         1 MZ3      -0.144000
     39 C3          15.0950    33.5930    17.6980 ca         1 MZ3      -0.090000
     40 C4          15.7470    33.0730    16.5910 ca         1 MZ3      -0.059000
     41 H25         24.9130    24.3740    12.7990 ha         1 MZ3       0.133000
     42 H24         22.4300    24.0640    12.8520 ha         1 MZ3       0.120000
     43 H23         20.9630    26.0510    12.9720 ha         1 MZ3       0.123000
     44 H281        25.5780    28.9510    13.5310 hc         1 MZ3       0.056033
     45 H282        24.8160    29.3940    12.0060 hc         1 MZ3       0.056033
     46 H283        23.9870    29.7260    13.5180 hc         1 MZ3       0.056033
     47 HN20        20.7520    27.8690    14.6250 hn         1 MZ3       0.320500
     48 H19         19.9820    30.5040    13.5640 h1         1 MZ3       0.100700
     49 H321        18.0940    28.1900    14.1860 hc         1 MZ3       0.065200
     50 H322        17.5770    29.8450    13.8690 hc         1 MZ3       0.065200
     51 H37         17.9830    30.8930    11.6450 ha         1 MZ3       0.110500
     52 H36         18.0940    30.5090     9.2080 ha         1 MZ3       0.108500
     53 H35         18.5440    28.2350     8.3270 ha         1 MZ3       0.108000
     54 H34         18.8570    26.3490     9.9060 ha         1 MZ3       0.108500
     55 H33         18.7280    26.7400    12.3410 ha         1 MZ3       0.110500
     56 H17         20.6980    30.3680    15.8720 h1         1 MZ3       0.052700
     57 HO18        19.6980    28.9950    17.2910 ho         1 MZ3       0.443000
     58 H161        17.6810    30.7830    15.7490 h1         1 MZ3       0.057200
     59 H162        18.7420    31.3290    17.0450 h1         1 MZ3       0.057200
     60 H121        19.8230    34.2260    15.6750 h1         1 MZ3       0.058200
     61 H122        20.3650    32.8850    16.6650 h1         1 MZ3       0.058200
     62 H18         22.7530    32.2090    16.1570 ha         1 MZ3       0.122000
     63 H14         24.5020    32.1870    14.1840 ha         1 MZ3       0.132000
     64 H13         23.4220    33.0440    11.9440 h4         1 MZ3       0.154000
     65 H6          17.8390    35.6990    15.9800 ha         1 MZ3       0.148000
     66 H201        16.2790    36.8280    20.0090 h1         1 MZ3       0.045700
     67 H202        16.5950    38.4060    19.2440 h1         1 MZ3       0.045700
     68 H203        15.0710    37.5460    18.9070 h1         1 MZ3       0.045700
     69 H2          14.8930    35.2300    19.0640 ha         1 MZ3       0.121000
     70 H3          14.3160    33.0170    18.1800 ha         1 MZ3       0.119000
     71 H4          15.4870    32.1020    16.1950 ha         1 MZ3       0.137000
@<TRIPOS>BOND
     1     1     2 1   
     2     2     3 ar  
     3     2     6 ar  
     4     3     4 ar  
     5     3    41 1   
     6     4     5 ar  
     7     4    42 1   
     8     5     8 ar  
     9     5    43 1   
    10     6     7 1   
    11     6     8 ar  
    12     7    44 1   
    13     7    45 1   
    14     7    46 1   
    15     8     9 1   
    16     9    10 2   
    17     9    11 1   
    18    11    12 1   
    19    11    47 1   
    20    12    13 1   
    21    12    20 1   
    22    12    48 1   
    23    13    14 1   
    24    13    49 1   
    25    13    50 1   
    26    14    15 ar  
    27    14    19 ar  
    28    15    16 ar  
    29    15    51 1   
    30    16    17 ar  
    31    16    52 1   
    32    17    18 ar  
    33    17    53 1   
    34    18    19 ar  
    35    18    54 1   
    36    19    55 1   
    37    20    21 1   
    38    20    22 1   
    39    20    56 1   
    40    21    57 1   
    41    22    23 1   
    42    22    58 1   
    43    22    59 1   
    44    23    24 1   
    45    23    30 1   
    46    24    25 1   
    47    24    60 1   
    48    24    61 1   
    49    25    26 2   
    50    25    29 1   
    51    26    27 1   
    52    26    62 1   
    53    27    28 2   
    54    27    63 1   
    55    28    29 1   
    56    28    64 1   
    57    30    31 2   
    58    30    32 2   
    59    30    33 1   
    60    33    34 ar  
    61    33    40 ar  
    62    34    35 ar  
    63    34    65 1   
    64    35    36 1   
    65    35    38 ar  
    66    36    37 1   
    67    37    66 1   
    68    37    67 1   
    69    37    68 1   
    70    38    39 ar  
    71    38    69 1   
    72    39    40 ar  
    73    39    70 1   
    74    40    71 1   
@<TRIPOS>SUBSTRUCTURE
     1 MZ3         1 TEMP              0 ****  ****    0 ROOT
