@<TRIPOS>MOLECULE
MZ4
   70    73     1     0     0
SMALL
abcg2


@<TRIPOS>ATOM
      1 O10         16.7040    31.6980    14.2920 o          1 MZ4      -0.537000
      2 S8          17.4870    32.8630    14.6220 sy         1 MZ4       1.188600
      3 O9          17.7780    33.8300    13.5910 o          1 MZ4      -0.537000
      4 C5          16.6950    33.7090    15.9660 ca         1 MZ4      -0.275500
      5 C4          15.9360    32.9790    16.8800 ca         1 MZ4      -0.059000
      6 C3          15.4000    33.6490    17.9690 ca         1 MZ4      -0.089000
      7 C2          15.6110    35.0130    18.1540 ca         1 MZ4      -0.145000
      8 C7          16.3740    35.7270    17.2280 ca         1 MZ4       0.121100
      9 O19         16.6370    37.0540    17.3110 os         1 MZ4      -0.346100
     10 C20         16.1280    37.7790    18.4330 c3         1 MZ4       0.147900
     11 C6          16.9200    35.0680    16.1240 ca         1 MZ4      -0.053000
     12 N11         18.9340    32.3290    15.2080 n3         1 MZ4      -0.748500
     13 C12         19.9060    33.3860    15.5770 c3         1 MZ4       0.279100
     14 C15         21.3190    32.9320    15.4140 cc         1 MZ4      -0.245300
     15 S1          21.9820    32.5830    13.8560 ss         1 MZ4       0.285000
     16 C13         23.4760    32.0730    14.5370 cc         1 MZ4      -0.247000
     17 C14         23.4670    32.1750    15.9000 cd         1 MZ4      -0.147000
     18 C18         22.2290    32.6670    16.4000 cd         1 MZ4      -0.130000
     19 C16         18.9300    31.1320    16.0620 c3         1 MZ4       0.211800
     20 C17         19.9120    30.0580    15.5860 c3         1 MZ4       0.153300
     21 O18         19.7970    28.9870    16.5290 oh         1 MZ4      -0.671000
     22 C19         19.6630    29.5880    14.1450 c3         1 MZ4       0.094700
     23 C32         18.4050    28.7100    14.0040 c3         1 MZ4      -0.041100
     24 C38         18.1180    28.3650    12.5690 ca         1 MZ4      -0.077300
     25 C33         18.6340    27.2030    11.9940 ca         1 MZ4      -0.099000
     26 C34         18.4290    26.9210    10.6470 ca         1 MZ4      -0.111000
     27 C35         17.6950    27.7970     9.8540 ca         1 MZ4      -0.112000
     28 C36         17.1650    28.9540    10.4200 ca         1 MZ4      -0.111000
     29 C37         17.3760    29.2330    11.7650 ca         1 MZ4      -0.099000
     30 N20         20.8450    28.8920    13.6650 ns         1 MZ4      -0.504900
     31 C21         21.4470    29.1410    12.4820 c          1 MZ4       0.614700
     32 O22         21.0200    29.9680    11.6710 o          1 MZ4      -0.595100
     33 C22         22.6860    28.3540    12.2020 ca         1 MZ4      -0.150600
     34 C23         23.5000    27.8350    13.2080 ca         1 MZ4      -0.084000
     35 C24         24.6570    27.1350    12.8870 ca         1 MZ4      -0.132000
     36 C27         23.0530    28.1700    10.8650 ca         1 MZ4      -0.101000
     37 C26         24.1980    27.4670    10.5430 ca         1 MZ4       0.032100
     38 O29         24.6250    27.2340     9.2650 oh         1 MZ4      -0.562100
     39 C25         25.0100    26.9400    11.5590 ca         1 MZ4       0.139100
     40 O28         26.1400    26.2480    11.2550 oh         1 MZ4      -0.532100
     41 H4          15.7640    31.9220    16.7360 ha         1 MZ4       0.136000
     42 H3          14.8020    33.1060    18.6900 ha         1 MZ4       0.119000
     43 H2          15.1800    35.5050    19.0120 ha         1 MZ4       0.121000
     44 H201        16.5200    37.3760    19.3680 h1         1 MZ4       0.045367
     45 H202        16.4690    38.8030    18.3020 h1         1 MZ4       0.045367
     46 H203        15.0360    37.7540    18.4510 h1         1 MZ4       0.045367
     47 H6          17.5060    35.6260    15.4080 ha         1 MZ4       0.149000
     48 H121        19.7080    34.2470    14.9440 h1         1 MZ4       0.065200
     49 H122        19.7520    33.6820    16.6190 h1         1 MZ4       0.065200
     50 H13         24.2730    31.7310    13.8960 h4         1 MZ4       0.154000
     51 H14         24.3080    31.9040    16.5230 ha         1 MZ4       0.133000
     52 H18         22.0060    32.7990    17.4510 ha         1 MZ4       0.129000
     53 H161        19.1990    31.4160    17.0820 h1         1 MZ4       0.064200
     54 H162        17.9290    30.7100    16.0880 h1         1 MZ4       0.064200
     55 H17         20.9220    30.4590    15.6240 h1         1 MZ4       0.055700
     56 HO18        20.6670    28.5940    16.6610 ho         1 MZ4       0.444000
     57 H19         19.5560    30.4720    13.5190 h1         1 MZ4       0.101700
     58 H321        18.5510    27.8030    14.5910 hc         1 MZ4       0.063200
     59 H322        17.5610    29.2500    14.4310 hc         1 MZ4       0.063200
     60 H33         19.2080    26.5170    12.6070 ha         1 MZ4       0.116000
     61 H34         18.8420    26.0160    10.2180 ha         1 MZ4       0.108000
     62 H35         17.5340    27.5790     8.8060 ha         1 MZ4       0.107000
     63 H36         16.5880    29.6400     9.8120 ha         1 MZ4       0.108000
     64 H37         16.9730    30.1400    12.2000 ha         1 MZ4       0.116000
     65 HN20        21.1640    28.1010    14.2020 hn         1 MZ4       0.304500
     66 H23         23.2620    27.9960    14.2510 ha         1 MZ4       0.113000
     67 H24         25.3000    26.7390    13.6620 ha         1 MZ4       0.134000
     68 H27         22.4330    28.5800    10.0780 ha         1 MZ4       0.141000
     69 HO29        24.0140    27.6240     8.6260 ho         1 MZ4       0.480000
     70 HO28        26.2390    26.2090    10.2920 ho         1 MZ4       0.485000
@<TRIPOS>BOND
     1     1     2 2   
     2     2     3 2   
     3     2     4 1   
     4     2    12 1   
     5     4     5 ar  
     6     4    11 ar  
     7     5     6 ar  
     8     5    41 1   
     9     6     7 ar  
    10     6    42 1   
    11     7     8 ar  
    12     7    43 1   
    13     8     9 1   
    14     8    11 ar  
    15     9    10 1   
    16    10    44 1   
    17    10    45 1   
    18    10    46 1   
    19    11    47 1   
    20    12    13 1   
    21    12    19 1   
    22    13    14 1   
    23    13    48 1   
    24    13    49 1   
    25    14    15 1   
    26    14    18 2   
    27    15    16 1   
    28    16    17 2   
    29    16    50 1   
    30    17    18 1   
    31    17    51 1   
    32    18    52 1   
    33    19    20 1   
    34    19    53 1   
    35    19    54 1   
    36    20    21 1   
    37    20    22 1   
    38    20    55 1   
    39    21    56 1   
    40    22    23 1   
    41    22    30 1   
    42    22    57 1   
    43    23    24 1   
    44    23    58 1   
    45    23    59 1   
    46    24    25 ar  
    47    24    29 ar  
    48    25    26 ar  
    49    25    60 1   
    50    26    27 ar  
    51    26    61 1   
    52    27    28 ar  
    53    27    62 1   
    54    28    29 ar  
    55    28    63 1   
    56    29    64 1   
    57    30    31 1   
    58    30    65 1   
    59    31    32 2   
    60    31    33 1   
    61    33    34 ar  
    62    33    36 ar  
    63    34    35 ar  
    64    34    66 1   
    65    35    39 ar  
    66    35    67 1   
    67    36    37 ar  
    68    36    68 1   
    69    37    38 1   
    70    37    39 ar  
    71    38    69 1   
    72    39    40 1   
    73    40    70 1   
@<TRIPOS>SUBSTRUCTURE
     1 MZ4         1 TEMP              0 ****  ****    0 ROOT
