@<TRIPOS>MOLECULE
MZ4
   70    73     1     0     0
SMALL
No Charge or Current Charge


@<TRIPOS>ATOM
      1 O10         16.0990    31.9480    14.2050 o          1 MZ4      -0.537000
      2 S8          16.8970    33.1390    14.5160 sy         1 MZ4       1.188600
      3 O9          16.9070    34.2850    13.5990 o          1 MZ4      -0.537000
      4 C5          16.5310    33.7120    16.1910 ca         1 MZ4      -0.275500
      5 C4          15.9590    32.8360    17.1380 ca         1 MZ4      -0.059000
      6 C3          15.6840    33.2880    18.4390 ca         1 MZ4      -0.089000
      7 C2          15.9730    34.6140    18.8070 ca         1 MZ4      -0.145000
      8 C7          16.5380    35.5000    17.8630 ca         1 MZ4       0.121100
      9 O19         16.8390    36.8140    18.1660 os         1 MZ4      -0.346100
     10 C20         16.6000    37.3770    19.4680 c3         1 MZ4       0.147900
     11 C6          16.8110    35.0460    16.5620 ca         1 MZ4      -0.053000
     12 N11         18.5160    32.6040    14.6410 n3         1 MZ4      -0.748500
     13 C12         19.4760    33.7250    14.7970 c3         1 MZ4       0.279100
     14 C15         20.9130    33.3420    14.5930 cc         1 MZ4      -0.245300
     15 S1          21.5140    32.9170    12.9920 ss         1 MZ4       0.285000
     16 C13         23.1280    32.6360    13.6400 cc         1 MZ4      -0.247000
     17 C14         23.1720    32.8980    14.9860 cd         1 MZ4      -0.147000
     18 C18         21.9230    33.3060    15.5240 cd         1 MZ4      -0.130000
     19 C16         18.6920    31.5120    15.6480 c3         1 MZ4       0.211800
     20 C17         19.8010    30.4560    15.3400 c3         1 MZ4       0.153300
     21 O18         19.8080    29.4290    16.3570 oh         1 MZ4      -0.671000
     22 C19         19.6670    29.8060    13.9270 c3         1 MZ4       0.094700
     23 C32         18.3760    28.9680    13.7210 c3         1 MZ4      -0.041100
     24 C38         18.2520    28.4030    12.3110 ca         1 MZ4      -0.077300
     25 C33         18.6180    27.0690    12.0390 ca         1 MZ4      -0.099000
     26 C34         18.5130    26.5570    10.7340 ca         1 MZ4      -0.111000
     27 C35         18.0380    27.3740     9.6940 ca         1 MZ4      -0.112000
     28 C36         17.6710    28.7040     9.9590 ca         1 MZ4      -0.111000
     29 C37         17.7780    29.2170    11.2640 ca         1 MZ4      -0.099000
     30 N20         20.8590    28.9960    13.6290 ns         1 MZ4      -0.504900
     31 C21         21.5890    29.0440    12.4600 c          1 MZ4       0.614700
     32 O22         21.3100    29.8250    11.5600 o          1 MZ4      -0.595100
     33 C22         22.7570    28.0820    12.3550 ca         1 MZ4      -0.150600
     34 C23         23.0790    27.1720    13.3940 ca         1 MZ4      -0.084000
     35 C24         24.1680    26.2920    13.2630 ca         1 MZ4      -0.132000
     36 C27         23.5560    28.0840    11.1860 ca         1 MZ4      -0.101000
     37 C26         24.6450    27.2040    11.0560 ca         1 MZ4       0.032100
     38 O29         25.4150    27.2120     9.9200 oh         1 MZ4      -0.562100
     39 C25         24.9480    26.3080    12.0990 ca         1 MZ4       0.139100
     40 O28         26.0050    25.4580    11.9670 oh         1 MZ4      -0.532100
     41 H4          15.7250    31.8060    16.8720 ha         1 MZ4       0.136000
     42 H3          15.2450    32.6070    19.1660 ha         1 MZ4       0.119000
     43 H2          15.7490    34.9340    19.8210 ha         1 MZ4       0.121000
     44 H201        17.1690    36.8390    20.2370 h1         1 MZ4       0.045367
     45 H202        16.9110    38.4290    19.4910 h1         1 MZ4       0.045367
     46 H203        15.5330    37.3330    19.7230 h1         1 MZ4       0.045367
     47 H6          17.2440    35.7400    15.8440 ha         1 MZ4       0.149000
     48 H121        19.2700    34.5210    14.0690 h1         1 MZ4       0.065200
     49 H122        19.3740    34.1780    15.7920 h1         1 MZ4       0.065200
     50 H13         23.9180    32.3090    12.9770 h4         1 MZ4       0.154000
     51 H14         24.0750    32.8010    15.5820 ha         1 MZ4       0.133000
     52 H18         21.7780    33.5510    16.5720 ha         1 MZ4       0.129000
     53 H161        18.8890    31.9490    16.6370 h1         1 MZ4       0.064200
     54 H162        17.7630    30.9390    15.7590 h1         1 MZ4       0.064200
     55 H17         20.7700    30.9640    15.3600 h1         1 MZ4       0.055700
     56 HO18        20.2400    29.8080    17.1550 ho         1 MZ4       0.444000
     57 H19         19.6280    30.6330    13.2050 h1         1 MZ4       0.101700
     58 H321        18.3510    28.1530    14.4550 hc         1 MZ4       0.063200
     59 H322        17.4990    29.5890    13.9340 hc         1 MZ4       0.063200
     60 H33         18.9910    26.4310    12.8370 ha         1 MZ4       0.116000
     61 H34         18.7990    25.5280    10.5290 ha         1 MZ4       0.108000
     62 H35         17.9570    26.9780     8.6840 ha         1 MZ4       0.107000
     63 H36         17.3060    29.3380     9.1550 ha         1 MZ4       0.108000
     64 H37         17.4960    30.2490    11.4610 ha         1 MZ4       0.116000
     65 HN20        21.1620    28.3360    14.3320 hn         1 MZ4       0.304500
     66 H23         22.4960    27.1300    14.3110 ha         1 MZ4       0.113000
     67 H24         24.4070    25.5980    14.0650 ha         1 MZ4       0.134000
     68 H27         23.3250    28.7740    10.3770 ha         1 MZ4       0.141000
     69 HO29        25.0680    27.8910     9.2980 ho         1 MZ4       0.480000
     70 HO28        26.3910    25.6520    11.0820 ho         1 MZ4       0.485000
@<TRIPOS>BOND
     1     1     2 2   
     2     2     3 2   
     3     2     4 1   
     4     2    12 1   
     5     4     5 ar  
     6     4    11 ar  
     7     5     6 ar  
     8     5    41 1   
     9     6     7 ar  
    10     6    42 1   
    11     7     8 ar  
    12     7    43 1   
    13     8     9 1   
    14     8    11 ar  
    15     9    10 1   
    16    10    44 1   
    17    10    45 1   
    18    10    46 1   
    19    11    47 1   
    20    12    13 1   
    21    12    19 1   
    22    13    14 1   
    23    13    48 1   
    24    13    49 1   
    25    14    15 1   
    26    14    18 2   
    27    15    16 1   
    28    16    17 2   
    29    16    50 1   
    30    17    18 1   
    31    17    51 1   
    32    18    52 1   
    33    19    20 1   
    34    19    53 1   
    35    19    54 1   
    36    20    21 1   
    37    20    22 1   
    38    20    55 1   
    39    21    56 1   
    40    22    23 1   
    41    22    30 1   
    42    22    57 1   
    43    23    24 1   
    44    23    58 1   
    45    23    59 1   
    46    24    25 ar  
    47    24    29 ar  
    48    25    26 ar  
    49    25    60 1   
    50    26    27 ar  
    51    26    61 1   
    52    27    28 ar  
    53    27    62 1   
    54    28    29 ar  
    55    28    63 1   
    56    29    64 1   
    57    30    31 1   
    58    30    65 1   
    59    31    32 2   
    60    31    33 1   
    61    33    34 ar  
    62    33    36 ar  
    63    34    35 ar  
    64    34    66 1   
    65    35    39 ar  
    66    35    67 1   
    67    36    37 ar  
    68    36    68 1   
    69    37    38 1   
    70    37    39 ar  
    71    38    69 1   
    72    39    40 1   
    73    40    70 1   
@<TRIPOS>SUBSTRUCTURE
     1 MZ4         1 TEMP              0 ****  ****    0 ROOT
