@<TRIPOS>MOLECULE
MZ5
   74    76     1     0     0
SMALL
bcc


@<TRIPOS>ATOM
      1 O22          3.6710    -0.2260    -1.6570 o          1 MZ5      -0.602100
      2 C21          3.5980     0.0980    -0.4810 c          1 MZ5       0.636100
      3 C22          4.6790     0.9830     0.1380 c3         1 MZ5       0.076100
      4 C24          4.1350     2.3890     0.4610 c3         1 MZ5      -0.076700
      5 C26          5.2120     3.2250     1.1430 c3         1 MZ5      -0.088100
      6 C25          3.5840     3.0920    -0.7740 c3         1 MZ5      -0.088100
      7 O23          5.7770     1.0340    -0.7250 oh         1 MZ5      -0.585800
      8 N20          2.5890    -0.2410     0.3360 ns         1 MZ5      -0.559900
      9 C19          1.5260    -1.1660     0.0010 c3         1 MZ5       0.073700
     10 C32          1.6610    -2.4470     0.8330 c3         1 MZ5      -0.044100
     11 C38          3.0080    -3.0850     0.6420 ca         1 MZ5      -0.088300
     12 C37          4.0460    -2.8590     1.5420 ca         1 MZ5      -0.122500
     13 C36          5.3010    -3.4190     1.3380 ca         1 MZ5      -0.121500
     14 C35          5.5350    -4.2180     0.2270 ca         1 MZ5      -0.121000
     15 C34          4.5060    -4.4510    -0.6780 ca         1 MZ5      -0.121500
     16 C33          3.2550    -3.8870    -0.4700 ca         1 MZ5      -0.122500
     17 C17          0.1700    -0.4640     0.2080 c3         1 MZ5       0.111100
     18 O18         -0.9130    -1.3530     0.2490 oh         1 MZ5      -0.583800
     19 C16         -0.0160     0.6120    -0.8610 c3         1 MZ5       0.184800
     20 N11         -1.1490     1.4970    -0.6340 n3         1 MZ5      -0.775500
     21 C12         -1.1580     2.2920     0.5910 c3         1 MZ5       0.223800
     22 C13          0.0270     3.2560     0.6720 c3         1 MZ5      -0.070700
     23 C14          0.0600     4.1890    -0.5300 c3         1 MZ5      -0.087100
     24 C15         -0.0520     4.0130     2.0000 c3         1 MZ5      -0.075400
     25 C18          1.1880     4.8400     2.3090 c3         1 MZ5      -0.088100
     26 S8          -2.4860     1.3890    -1.5730 sy         1 MZ5       1.330200
     27 O10         -3.2570     2.6050    -1.3740 o          1 MZ5      -0.608300
     28 O9          -2.0580     1.0250    -2.9150 o          1 MZ5      -0.608300
     29 C5          -3.4640     0.0420    -0.9560 ca         1 MZ5      -0.274500
     30 C4          -4.1670     0.2270     0.2200 ca         1 MZ5       0.020000
     31 C3          -4.8820    -0.8580     0.7050 ca         1 MZ5      -0.081100
     32 S1          -5.8510    -0.9680     2.1310 ss         1 MZ5      -0.083100
     33 C1          -6.1990    -2.6150     1.7140 cc         1 MZ5       0.399100
     34 N1          -5.6670    -3.0640     0.6340 nd         1 MZ5      -0.529100
     35 C2          -4.9090    -2.0910     0.0300 ca         1 MZ5       0.134400
     36 C7          -4.2020    -2.2400    -1.1630 ca         1 MZ5      -0.090000
     37 C6          -3.4810    -1.1710    -1.6520 ca         1 MZ5      -0.053000
     38 H22          4.9970     0.5230     1.0840 h1         1 MZ5       0.065700
     39 H24          3.3180     2.2610     1.1810 hc         1 MZ5       0.035700
     40 H261         6.0670     3.3880     0.4860 hc         1 MZ5       0.039867
     41 H262         4.8170     4.2030     1.4220 hc         1 MZ5       0.039867
     42 H263         5.5720     2.7410     2.0530 hc         1 MZ5       0.039867
     43 H251         4.3360     3.1650    -1.5620 hc         1 MZ5       0.039867
     44 H252         2.7120     2.5830    -1.1870 hc         1 MZ5       0.039867
     45 H253         3.2690     4.1070    -0.5280 hc         1 MZ5       0.039867
     46 HO23         5.4680     0.7320    -1.5910 ho         1 MZ5       0.435000
     47 HN20         2.6740     0.0110     1.3100 hn         1 MZ5       0.312500
     48 H19          1.6430    -1.4220    -1.0560 h1         1 MZ5       0.088700
     49 H321         1.4960    -2.2140     1.8890 hc         1 MZ5       0.060200
     50 H322         0.8760    -3.1450     0.5400 hc         1 MZ5       0.060200
     51 H37          3.8700    -2.2410     2.4150 ha         1 MZ5       0.124500
     52 H36          6.0950    -3.2340     2.0500 ha         1 MZ5       0.132500
     53 H35          6.5100    -4.6590     0.0680 ha         1 MZ5       0.133000
     54 H34          4.6780    -5.0750    -1.5450 ha         1 MZ5       0.132500
     55 H33          2.4590    -4.0750    -1.1810 ha         1 MZ5       0.124500
     56 H17          0.1980    -0.0020     1.2010 h1         1 MZ5       0.076700
     57 HO18        -1.0010    -1.7930    -0.6040 ho         1 MZ5       0.405000
     58 H161         0.8830     1.2260    -0.9230 h1         1 MZ5       0.076700
     59 H162        -0.1070     0.1410    -1.8410 h1         1 MZ5       0.076700
     60 H121        -2.0780     2.8740     0.6270 h1         1 MZ5       0.054200
     61 H122        -1.1680     1.6360     1.4670 h1         1 MZ5       0.054200
     62 H13          0.9560     2.6720     0.6930 hc         1 MZ5       0.044700
     63 H141        -0.8360     4.8140    -0.5580 hc         1 MZ5       0.040367
     64 H142         0.9270     4.8480    -0.5010 hc         1 MZ5       0.040367
     65 H143         0.1090     3.6360    -1.4690 hc         1 MZ5       0.040367
     66 H151        -0.9370     4.6570     1.9930 hc         1 MZ5       0.039200
     67 H152        -0.2040     3.2930     2.8100 hc         1 MZ5       0.039200
     68 H181         1.3520     5.6270     1.5730 hc         1 MZ5       0.034033
     69 H182         1.1050     5.3200     3.2850 hc         1 MZ5       0.034033
     70 H183         2.0830     4.2130     2.3290 hc         1 MZ5       0.034033
     71 H4          -4.1660     1.1720     0.7480 ha         1 MZ5       0.154000
     72 H1          -6.8390    -3.2050     2.3570 h5         1 MZ5       0.061800
     73 H7          -4.2240    -3.1810    -1.6940 ha         1 MZ5       0.155000
     74 H6          -2.9350    -1.2780    -2.5790 ha         1 MZ5       0.159000
@<TRIPOS>BOND
     1     1     2 2   
     2     2     3 1   
     3     2     8 1   
     4     3     4 1   
     5     3     7 1   
     6     3    38 1   
     7     4     5 1   
     8     4     6 1   
     9     4    39 1   
    10     5    40 1   
    11     5    41 1   
    12     5    42 1   
    13     6    43 1   
    14     6    44 1   
    15     6    45 1   
    16     7    46 1   
    17     8     9 1   
    18     8    47 1   
    19     9    10 1   
    20     9    17 1   
    21     9    48 1   
    22    10    11 1   
    23    10    49 1   
    24    10    50 1   
    25    11    12 ar  
    26    11    16 ar  
    27    12    13 ar  
    28    12    51 1   
    29    13    14 ar  
    30    13    52 1   
    31    14    15 ar  
    32    14    53 1   
    33    15    16 ar  
    34    15    54 1   
    35    16    55 1   
    36    17    18 1   
    37    17    19 1   
    38    17    56 1   
    39    18    57 1   
    40    19    20 1   
    41    19    58 1   
    42    19    59 1   
    43    20    21 1   
    44    20    26 1   
    45    21    22 1   
    46    21    60 1   
    47    21    61 1   
    48    22    23 1   
    49    22    24 1   
    50    22    62 1   
    51    23    63 1   
    52    23    64 1   
    53    23    65 1   
    54    24    25 1   
    55    24    66 1   
    56    24    67 1   
    57    25    68 1   
    58    25    69 1   
    59    25    70 1   
    60    26    27 2   
    61    26    28 2   
    62    26    29 1   
    63    29    30 ar  
    64    29    37 ar  
    65    30    31 ar  
    66    30    71 1   
    67    31    32 1   
    68    31    35 ar  
    69    32    33 1   
    70    33    34 2   
    71    33    72 1   
    72    34    35 1   
    73    35    36 ar  
    74    36    37 ar  
    75    36    73 1   
    76    37    74 1   
@<TRIPOS>SUBSTRUCTURE
     1 MZ5         1 TEMP              0 ****  ****    0 ROOT
