@<TRIPOS>MOLECULE
MZ5
   74    76     1     0     0
SMALL
No Charge or Current Charge


@<TRIPOS>ATOM
      1 O22          3.3930    -0.0170    -2.0470 o          1 MZ5      -0.602100
      2 C21          3.5120     0.2410    -0.8550 c          1 MZ5       0.569100
      3 C22          4.6360     1.1760    -0.3060 c3         1 MZ5       0.099300
      4 C24          4.1320     2.6400    -0.1130 c3         1 MZ5      -0.076700
      5 C26          5.1360     3.5000     0.6900 c3         1 MZ5      -0.088100
      6 C25          3.7250     3.3390    -1.4350 c3         1 MZ5      -0.088100
      7 O23          5.8100     1.1580    -1.1560 oh         1 MZ5      -0.648000
      8 N20          2.6810    -0.3040     0.1020 ns         1 MZ5      -0.492900
      9 C19          1.5770    -1.2430    -0.1680 c3         1 MZ5       0.073700
     10 C32          1.6780    -2.4450     0.8090 c3         1 MZ5      -0.044100
     11 C38          3.0700    -3.0730     0.8430 ca         1 MZ5      -0.088300
     12 C37          3.8680    -2.9800     2.0010 ca         1 MZ5      -0.104500
     13 C36          5.1540    -3.5490     2.0230 ca         1 MZ5      -0.103500
     14 C35          5.6490    -4.2150     0.8890 ca         1 MZ5      -0.103000
     15 C34          4.8560    -4.3120    -0.2670 ca         1 MZ5      -0.103500
     16 C33          3.5710    -3.7440    -0.2900 ca         1 MZ5      -0.104500
     17 C17          0.1940    -0.5220    -0.1270 c3         1 MZ5       0.134300
     18 O18         -0.8570    -1.4800    -0.3270 oh         1 MZ5      -0.646000
     19 C16          0.0790     0.6390    -1.1730 c3         1 MZ5       0.184800
     20 N11         -1.0730     1.5820    -1.0220 n3         1 MZ5      -0.775500
     21 C12         -1.2780     2.1870     0.3180 c3         1 MZ5       0.223800
     22 C13         -0.0420     2.9310     0.9010 c3         1 MZ5      -0.070700
     23 C14          0.3950     4.1070    -0.0120 c3         1 MZ5      -0.087100
     24 C15         -0.3130     3.3870     2.3600 c3         1 MZ5      -0.075400
     25 C18          0.9160     3.9670     3.0940 c3         1 MZ5      -0.088100
     26 S8          -2.4640     1.3460    -1.9930 sy         1 MZ5       1.188600
     27 O10         -3.1880     2.6210    -1.9540 o          1 MZ5      -0.537500
     28 O9          -1.9930     0.8080    -3.2730 o          1 MZ5      -0.537500
     29 C5          -3.4070     0.0850    -1.1150 ca         1 MZ5      -0.274500
     30 C4          -4.0880     0.4200     0.0750 ca         1 MZ5       0.038000
     31 C3          -4.8280    -0.5770     0.7270 ca         1 MZ5      -0.208000
     32 S1          -5.7270    -0.3680     2.2210 ss         1 MZ5       0.043800
     33 C1          -6.1640    -2.0810     2.0380 cc         1 MZ5       0.399100
     34 N1          -5.6970    -2.7510     0.9720 nd         1 MZ5      -0.529100
     35 C2          -4.9290    -1.8600     0.2320 ca         1 MZ5       0.134400
     36 C7          -4.2820    -2.1990    -0.9650 ca         1 MZ5      -0.072000
     37 C6          -3.5250    -1.2240    -1.6460 ca         1 MZ5      -0.035000
     38 H22          4.9030     0.7820     0.6840 h1         1 MZ5       0.065700
     39 H24          3.2250     2.5810     0.5020 hc         1 MZ5       0.035700
     40 H261         6.0690     3.6420     0.1320 hc         1 MZ5       0.039867
     41 H262         4.7130     4.4900     0.9040 hc         1 MZ5       0.039867
     42 H263         5.3770     3.0240     1.6480 hc         1 MZ5       0.039867
     43 H251         4.5820     3.4380    -2.1120 hc         1 MZ5       0.039867
     44 H252         2.9380     2.7790    -1.9540 hc         1 MZ5       0.039867
     45 H253         3.3380     4.3450    -1.2350 hc         1 MZ5       0.039867
     46 HO23         5.4850     0.9850    -2.0700 ho         1 MZ5       0.474000
     47 HN20         2.8800    -0.0660     1.0670 hn         1 MZ5       0.312500
     48 H19          1.7070    -1.6430    -1.1820 h1         1 MZ5       0.088700
     49 H321         1.3870    -2.1120     1.8130 hc         1 MZ5       0.060200
     50 H322         0.9470    -3.2100     0.5210 hc         1 MZ5       0.060200
     51 H37          3.4960    -2.4650     2.8830 ha         1 MZ5       0.106500
     52 H36          5.7660    -3.4720     2.9190 ha         1 MZ5       0.114500
     53 H35          6.6430    -4.6550     0.9070 ha         1 MZ5       0.115000
     54 H34          5.2380    -4.8280    -1.1460 ha         1 MZ5       0.114500
     55 H33          2.9660    -3.8230    -1.1900 ha         1 MZ5       0.106500
     56 H17          0.1020    -0.0860     0.8770 h1         1 MZ5       0.076700
     57 HO18        -1.7050    -0.9850    -0.3180 ho         1 MZ5       0.444000
     58 H161         0.9950     1.2370    -1.1020 h1         1 MZ5       0.076700
     59 H162         0.1140     0.2010    -2.1790 h1         1 MZ5       0.076700
     60 H121        -2.0950     2.9200     0.2830 h1         1 MZ5       0.054200
     61 H122        -1.5910     1.4110     1.0290 h1         1 MZ5       0.054200
     62 H13          0.7920     2.2220     0.9480 hc         1 MZ5       0.044700
     63 H141        -0.3810     4.8810    -0.0470 hc         1 MZ5       0.040367
     64 H142         1.3230     4.5650     0.3470 hc         1 MZ5       0.040367
     65 H143         0.5770     3.7620    -1.0370 hc         1 MZ5       0.040367
     66 H151        -1.1200     4.1310     2.3700 hc         1 MZ5       0.039200
     67 H152        -0.6750     2.5280     2.9380 hc         1 MZ5       0.039200
     68 H181         1.2350     4.9160     2.6470 hc         1 MZ5       0.034033
     69 H182         0.6740     4.1580     4.1460 hc         1 MZ5       0.034033
     70 H183         1.7580     3.2650     3.0590 hc         1 MZ5       0.034033
     71 H4          -4.0500     1.4280     0.4840 ha         1 MZ5       0.136000
     72 H1          -6.7960    -2.5270     2.7950 h5         1 MZ5       0.061800
     73 H7          -4.3650    -3.2060    -1.3650 ha         1 MZ5       0.137000
     74 H6          -3.0290    -1.4950    -2.5770 ha         1 MZ5       0.141000
@<TRIPOS>BOND
     1     1     2 2   
     2     2     3 1   
     3     2     8 1   
     4     3     4 1   
     5     3     7 1   
     6     3    38 1   
     7     4     5 1   
     8     4     6 1   
     9     4    39 1   
    10     5    40 1   
    11     5    41 1   
    12     5    42 1   
    13     6    43 1   
    14     6    44 1   
    15     6    45 1   
    16     7    46 1   
    17     8     9 1   
    18     8    47 1   
    19     9    10 1   
    20     9    17 1   
    21     9    48 1   
    22    10    11 1   
    23    10    49 1   
    24    10    50 1   
    25    11    12 ar  
    26    11    16 ar  
    27    12    13 ar  
    28    12    51 1   
    29    13    14 ar  
    30    13    52 1   
    31    14    15 ar  
    32    14    53 1   
    33    15    16 ar  
    34    15    54 1   
    35    16    55 1   
    36    17    18 1   
    37    17    19 1   
    38    17    56 1   
    39    18    57 1   
    40    19    20 1   
    41    19    58 1   
    42    19    59 1   
    43    20    21 1   
    44    20    26 1   
    45    21    22 1   
    46    21    60 1   
    47    21    61 1   
    48    22    23 1   
    49    22    24 1   
    50    22    62 1   
    51    23    63 1   
    52    23    64 1   
    53    23    65 1   
    54    24    25 1   
    55    24    66 1   
    56    24    67 1   
    57    25    68 1   
    58    25    69 1   
    59    25    70 1   
    60    26    27 2   
    61    26    28 2   
    62    26    29 1   
    63    29    30 ar  
    64    29    37 ar  
    65    30    31 ar  
    66    30    71 1   
    67    31    32 1   
    68    31    35 ar  
    69    32    33 1   
    70    33    34 2   
    71    33    72 1   
    72    34    35 1   
    73    35    36 ar  
    74    36    37 ar  
    75    36    73 1   
    76    37    74 1   
@<TRIPOS>SUBSTRUCTURE
     1 MZ5         1 TEMP              0 ****  ****    0 ROOT
