@<TRIPOS>MOLECULE
MZ6
   72    75     1     0     0
SMALL
abcg2


@<TRIPOS>ATOM
      1 O22          3.8500    -1.4900    -0.5550 o          1 MZ6      -0.594100
      2 C21          3.4020    -0.3610    -0.6920 c          1 MZ6       0.618700
      3 C22          4.2070     0.7150    -1.3520 ca         1 MZ6      -0.110600
      4 C27          5.1290     0.3330    -2.3190 ca         1 MZ6      -0.095000
      5 C26          5.9130     1.2910    -2.9550 ca         1 MZ6       0.133100
      6 O27          6.7750     0.8660    -3.8970 oh         1 MZ6      -0.529100
      7 C25          5.7880     2.6330    -2.6010 ca         1 MZ6      -0.189000
      8 C24          4.8800     3.0030    -1.6220 ca         1 MZ6      -0.077000
      9 C23          4.0830     2.0570    -0.9960 ca         1 MZ6      -0.128000
     10 N20          2.1710     0.0060    -0.2940 ns         1 MZ6      -0.500900
     11 C19          1.2710    -0.8340     0.4610 c3         1 MZ6       0.081700
     12 C32          1.1700    -0.3200     1.9090 c3         1 MZ6      -0.050100
     13 C38          2.5090    -0.3350     2.5900 ca         1 MZ6      -0.084300
     14 C37          3.3050     0.8050     2.6300 ca         1 MZ6      -0.100000
     15 C36          4.5630     0.7750     3.2180 ca         1 MZ6      -0.104000
     16 C35          5.0400    -0.4010     3.7800 ca         1 MZ6      -0.103000
     17 C34          4.2510    -1.5450     3.7500 ca         1 MZ6      -0.104000
     18 C33          2.9980    -1.5100     3.1570 ca         1 MZ6      -0.100000
     19 C17         -0.0790    -0.8940    -0.2700 c3         1 MZ6       0.131300
     20 O18         -0.6780     0.3730    -0.3810 oh         1 MZ6      -0.657000
     21 C16         -1.0020    -1.9430     0.3520 c3         1 MZ6       0.191800
     22 N11         -2.3210    -1.9880    -0.2610 n3         1 MZ6      -0.782500
     23 C12         -2.4210    -2.1230    -1.7090 c3         1 MZ6       0.226800
     24 C13         -1.9020    -3.4730    -2.2080 c3         1 MZ6      -0.071700
     25 C15         -1.9970    -3.4930    -3.7350 c3         1 MZ6      -0.074400
     26 C18         -1.3500    -4.7100    -4.3820 c3         1 MZ6      -0.088100
     27 C14         -2.6580    -4.6230    -1.5560 c3         1 MZ6      -0.089100
     28 S8          -3.6290    -1.6780     0.6710 sy         1 MZ6       1.194600
     29 O10         -4.8160    -1.9380    -0.1250 o          1 MZ6      -0.537000
     30 O9          -3.4570    -2.3610     1.9430 o          1 MZ6      -0.537000
     31 C5          -3.5630     0.0650     1.0090 ca         1 MZ6      -0.286500
     32 C6          -2.9540     0.5150     2.1880 ca         1 MZ6      -0.045000
     33 C7          -2.7970     1.8670     2.4130 ca         1 MZ6      -0.080000
     34 C2          -3.2610     2.7720     1.4580 ca         1 MZ6       0.129400
     35 C3          -3.8840     2.2930     0.2920 ca         1 MZ6      -0.215000
     36 C4          -4.0440     0.9370     0.0500 ca         1 MZ6       0.045000
     37 N1          -3.1740     4.1380     1.5470 nc         1 MZ6      -0.530100
     38 C1          -3.6980     4.6910     0.5120 cd         1 MZ6       0.397100
     39 S1          -4.3580     3.6320    -0.6910 ss         1 MZ6       0.060800
     40 H27          5.2370    -0.7090    -2.5900 ha         1 MZ6       0.149000
     41 HO27         7.2630     1.6090    -4.2690 ho         1 MZ6       0.466000
     42 H25          6.4020     3.3850    -3.0830 ha         1 MZ6       0.115000
     43 H24          4.7990     4.0450    -1.3400 ha         1 MZ6       0.115000
     44 H23          3.4030     2.3700    -0.2150 ha         1 MZ6       0.115000
     45 HN20         1.8380     0.9290    -0.5250 hn         1 MZ6       0.323500
     46 H19          1.6910    -1.8410     0.4750 h1         1 MZ6       0.094700
     47 H321         0.7730     0.6990     1.9110 hc         1 MZ6       0.049200
     48 H322         0.4710    -0.9390     2.4750 hc         1 MZ6       0.049200
     49 H37          2.9370     1.7310     2.2030 ha         1 MZ6       0.106500
     50 H36          5.1690     1.6720     3.2410 ha         1 MZ6       0.113000
     51 H35          6.0180    -0.4260     4.2440 ha         1 MZ6       0.113000
     52 H34          4.6130    -2.4650     4.1910 ha         1 MZ6       0.113000
     53 H33          2.3880    -2.4060     3.1380 ha         1 MZ6       0.106500
     54 H17          0.1470    -1.1970    -1.2960 h1         1 MZ6       0.090700
     55 HO18        -0.9730     0.6730     0.4860 ho         1 MZ6       0.444000
     56 H161        -0.5250    -2.9250     0.2700 h1         1 MZ6       0.065200
     57 H162        -1.1180    -1.7690     1.4220 h1         1 MZ6       0.065200
     58 H121        -3.4640    -2.0180    -2.0020 h1         1 MZ6       0.060700
     59 H122        -1.8820    -1.3050    -2.1930 h1         1 MZ6       0.060700
     60 H13         -0.8410    -3.5620    -1.9430 hc         1 MZ6       0.047700
     61 H151        -3.0500    -3.4350    -4.0300 hc         1 MZ6       0.038700
     62 H152        -1.5210    -2.5900    -4.1300 hc         1 MZ6       0.038700
     63 H181        -0.2970    -4.7890    -4.1070 hc         1 MZ6       0.034367
     64 H182        -1.8390    -5.6400    -4.0880 hc         1 MZ6       0.034367
     65 H183        -1.4030    -4.6460    -5.4690 hc         1 MZ6       0.034367
     66 H141        -2.5590    -4.6030    -0.4700 hc         1 MZ6       0.039033
     67 H142        -3.7240    -4.5720    -1.7920 hc         1 MZ6       0.039033
     68 H143        -2.2860    -5.5890    -1.8960 hc         1 MZ6       0.039033
     69 H6          -2.6150    -0.1900     2.9350 ha         1 MZ6       0.142000
     70 H7          -2.3290     2.2260     3.3200 ha         1 MZ6       0.139000
     71 H4          -4.5190     0.5850    -0.8560 ha         1 MZ6       0.145000
     72 H1          -3.7420     5.7620     0.3630 h5         1 MZ6       0.062800
@<TRIPOS>BOND
     1     1     2 2   
     2     2     3 1   
     3     2    10 1   
     4     3     4 ar  
     5     3     9 ar  
     6     4     5 ar  
     7     4    40 1   
     8     5     6 1   
     9     5     7 ar  
    10     6    41 1   
    11     7     8 ar  
    12     7    42 1   
    13     8     9 ar  
    14     8    43 1   
    15     9    44 1   
    16    10    11 1   
    17    10    45 1   
    18    11    12 1   
    19    11    19 1   
    20    11    46 1   
    21    12    13 1   
    22    12    47 1   
    23    12    48 1   
    24    13    14 ar  
    25    13    18 ar  
    26    14    15 ar  
    27    14    49 1   
    28    15    16 ar  
    29    15    50 1   
    30    16    17 ar  
    31    16    51 1   
    32    17    18 ar  
    33    17    52 1   
    34    18    53 1   
    35    19    20 1   
    36    19    21 1   
    37    19    54 1   
    38    20    55 1   
    39    21    22 1   
    40    21    56 1   
    41    21    57 1   
    42    22    23 1   
    43    22    28 1   
    44    23    24 1   
    45    23    58 1   
    46    23    59 1   
    47    24    25 1   
    48    24    27 1   
    49    24    60 1   
    50    25    26 1   
    51    25    61 1   
    52    25    62 1   
    53    26    63 1   
    54    26    64 1   
    55    26    65 1   
    56    27    66 1   
    57    27    67 1   
    58    27    68 1   
    59    28    29 2   
    60    28    30 2   
    61    28    31 1   
    62    31    32 ar  
    63    31    36 ar  
    64    32    33 ar  
    65    32    69 1   
    66    33    34 ar  
    67    33    70 1   
    68    34    35 ar  
    69    34    37 1   
    70    35    36 ar  
    71    35    39 1   
    72    36    71 1   
    73    37    38 2   
    74    38    39 1   
    75    38    72 1   
@<TRIPOS>SUBSTRUCTURE
     1 MZ6         1 TEMP              0 ****  ****    0 ROOT
