@<TRIPOS>MOLECULE
MZ6
   72    75     1     0     0
SMALL
No Charge or Current Charge


@<TRIPOS>ATOM
      1 O22          3.5550    -1.3240    -1.0900 o          1 MZ6      -0.594100
      2 C21          3.2010    -0.1720    -1.3000 c          1 MZ6       0.618700
      3 C22          4.0660     0.8110    -2.0680 ca         1 MZ6      -0.110600
      4 C27          5.3210     0.3890    -2.5650 ca         1 MZ6      -0.095000
      5 C26          6.1490     1.2720    -3.2760 ca         1 MZ6       0.133100
      6 O27          7.3540     0.8410    -3.7460 oh         1 MZ6      -0.529100
      7 C25          5.7390     2.5940    -3.5030 ca         1 MZ6      -0.189000
      8 C24          4.4970     3.0320    -3.0160 ca         1 MZ6      -0.077000
      9 C23          3.6650     2.1510    -2.3040 ca         1 MZ6      -0.128000
     10 N20          1.9840     0.3010    -0.8550 ns         1 MZ6      -0.500900
     11 C19          1.0260    -0.4480    -0.0280 c3         1 MZ6       0.081700
     12 C32          1.1020     0.0250     1.4520 c3         1 MZ6      -0.050100
     13 C38          2.5130    -0.0540     2.0270 ca         1 MZ6      -0.084300
     14 C37          3.3200     1.0980     2.0980 ca         1 MZ6      -0.100000
     15 C36          4.6250     1.0190     2.6150 ca         1 MZ6      -0.104000
     16 C35          5.1300    -0.2120     3.0660 ca         1 MZ6      -0.103000
     17 C34          4.3290    -1.3640     2.9980 ca         1 MZ6      -0.104000
     18 C33          3.0240    -1.2860     2.4800 ca         1 MZ6      -0.100000
     19 C17         -0.3980    -0.3770    -0.6600 c3         1 MZ6       0.131300
     20 O18         -0.8190     1.0020    -0.7500 oh         1 MZ6      -0.657000
     21 C16         -1.4430    -1.2610     0.1010 c3         1 MZ6       0.191800
     22 N11         -2.6800    -1.6700    -0.6370 n3         1 MZ6      -0.782500
     23 C12         -2.4740    -2.4670    -1.8730 c3         1 MZ6       0.226800
     24 C13         -1.6290    -3.7640    -1.7160 c3         1 MZ6      -0.071700
     25 C15         -1.4340    -4.4510    -3.0970 c3         1 MZ6      -0.074400
     26 C18         -0.4610    -5.6500    -3.0940 c3         1 MZ6      -0.088100
     27 C14         -2.2430    -4.7250    -0.6630 c3         1 MZ6      -0.089100
     28 S8          -3.9540    -0.5390    -0.7780 sy         1 MZ6       1.194600
     29 O10         -3.6580     0.3260    -1.9260 o          1 MZ6      -0.537000
     30 O9          -5.1830    -1.3360    -0.7030 o          1 MZ6      -0.537000
     31 C5          -3.8590     0.4170     0.7480 ca         1 MZ6      -0.286500
     32 C6          -4.1290    -0.2060     1.9900 ca         1 MZ6      -0.045000
     33 C7          -4.0440     0.5340     3.1860 ca         1 MZ6      -0.080000
     34 C2          -3.6960     1.8930     3.1410 ca         1 MZ6       0.129400
     35 C3          -3.4470     2.4890     1.9190 ca         1 MZ6      -0.215000
     36 C4          -3.5270     1.7860     0.7080 ca         1 MZ6       0.045000
     37 N1          -3.5870     2.6950     4.2730 nc         1 MZ6      -0.530100
     38 C1          -3.2450     3.9220     3.8410 cd         1 MZ6       0.397100
     39 S1          -3.0380     4.1850     2.0900 ss         1 MZ6       0.060800
     40 H27          5.6610    -0.6300    -2.4000 ha         1 MZ6       0.149000
     41 HO27         7.7900     1.5860    -4.2130 ho         1 MZ6       0.466000
     42 H25          6.3740     3.2840    -4.0530 ha         1 MZ6       0.115000
     43 H24          4.1780     4.0580    -3.1900 ha         1 MZ6       0.115000
     44 H23          2.7130     2.5290    -1.9410 ha         1 MZ6       0.115000
     45 HN20         1.7460     1.2510    -1.1040 hn         1 MZ6       0.323500
     46 H19          1.3220    -1.5070    -0.0410 h1         1 MZ6       0.094700
     47 H321         0.7300     1.0540     1.5270 hc         1 MZ6       0.049200
     48 H322         0.4310    -0.5850     2.0670 hc         1 MZ6       0.049200
     49 H37          2.9400     2.0550     1.7470 ha         1 MZ6       0.106500
     50 H36          5.2450     1.9120     2.6650 ha         1 MZ6       0.113000
     51 H35          6.1400    -0.2730     3.4660 ha         1 MZ6       0.113000
     52 H34          4.7190    -2.3190     3.3450 ha         1 MZ6       0.113000
     53 H33          2.4130    -2.1840     2.4270 ha         1 MZ6       0.106500
     54 H17         -0.2980    -0.7900    -1.6730 h1         1 MZ6       0.090700
     55 HO18        -0.9760     1.3220     0.1630 ho         1 MZ6       0.444000
     56 H161        -0.9180    -2.1740     0.4070 h1         1 MZ6       0.065200
     57 H162        -1.6920    -0.7720     1.0490 h1         1 MZ6       0.065200
     58 H121        -3.4500    -2.7730    -2.2750 h1         1 MZ6       0.060700
     59 H122        -2.0110    -1.8370    -2.6460 h1         1 MZ6       0.060700
     60 H13         -0.6300    -3.4780    -1.3660 hc         1 MZ6       0.047700
     61 H151        -2.4060    -4.7820    -3.4830 hc         1 MZ6       0.038700
     62 H152        -1.0520    -3.7090    -3.8100 hc         1 MZ6       0.038700
     63 H181         0.5100    -5.3620    -2.6720 hc         1 MZ6       0.034367
     64 H182        -0.8620    -6.4870    -2.5110 hc         1 MZ6       0.034367
     65 H183        -0.2950    -6.0050    -4.1180 hc         1 MZ6       0.034367
     66 H141        -2.3840    -4.2180     0.2990 hc         1 MZ6       0.039033
     67 H142        -3.2190    -5.0960    -0.9970 hc         1 MZ6       0.039033
     68 H143        -1.5900    -5.5860    -0.4820 hc         1 MZ6       0.039033
     69 H6          -4.3930    -1.2620     2.0290 ha         1 MZ6       0.142000
     70 H7          -4.2440     0.0550     4.1410 ha         1 MZ6       0.139000
     71 H4          -3.3300     2.2950    -0.2360 ha         1 MZ6       0.145000
     72 H1          -3.0880     4.7650     4.5020 h5         1 MZ6       0.062800
@<TRIPOS>BOND
     1     1     2 2   
     2     2     3 1   
     3     2    10 1   
     4     3     4 ar  
     5     3     9 ar  
     6     4     5 ar  
     7     4    40 1   
     8     5     6 1   
     9     5     7 ar  
    10     6    41 1   
    11     7     8 ar  
    12     7    42 1   
    13     8     9 ar  
    14     8    43 1   
    15     9    44 1   
    16    10    11 1   
    17    10    45 1   
    18    11    12 1   
    19    11    19 1   
    20    11    46 1   
    21    12    13 1   
    22    12    47 1   
    23    12    48 1   
    24    13    14 ar  
    25    13    18 ar  
    26    14    15 ar  
    27    14    49 1   
    28    15    16 ar  
    29    15    50 1   
    30    16    17 ar  
    31    16    51 1   
    32    17    18 ar  
    33    17    52 1   
    34    18    53 1   
    35    19    20 1   
    36    19    21 1   
    37    19    54 1   
    38    20    55 1   
    39    21    22 1   
    40    21    56 1   
    41    21    57 1   
    42    22    23 1   
    43    22    28 1   
    44    23    24 1   
    45    23    58 1   
    46    23    59 1   
    47    24    25 1   
    48    24    27 1   
    49    24    60 1   
    50    25    26 1   
    51    25    61 1   
    52    25    62 1   
    53    26    63 1   
    54    26    64 1   
    55    26    65 1   
    56    27    66 1   
    57    27    67 1   
    58    27    68 1   
    59    28    29 2   
    60    28    30 2   
    61    28    31 1   
    62    31    32 ar  
    63    31    36 ar  
    64    32    33 ar  
    65    32    69 1   
    66    33    34 ar  
    67    33    70 1   
    68    34    35 ar  
    69    34    37 1   
    70    35    36 ar  
    71    35    39 1   
    72    36    71 1   
    73    37    38 2   
    74    38    39 1   
    75    38    72 1   
@<TRIPOS>SUBSTRUCTURE
     1 MZ6         1 TEMP              0 ****  ****    0 ROOT
