@<TRIPOS>MOLECULE
MZ7
   80    82     1     0     0
SMALL
No Charge or Current Charge


@<TRIPOS>ATOM
      1 O9           2.1530    -1.3300    -0.9810 o          1 MZ7      -0.534000
      2 S8           2.2070    -1.1170     0.4680 sy         1 MZ7       1.181600
      3 O10          1.3970    -1.9000     1.4060 o          1 MZ7      -0.534000
      4 C5           3.9190    -1.2280     1.0230 ca         1 MZ7      -0.289500
      5 C6           4.9830    -1.2950     0.0910 ca         1 MZ7      -0.034000
      6 C7           6.3160    -1.3630     0.5430 ca         1 MZ7      -0.072000
      7 C4           4.1970    -1.2420     2.4050 ca         1 MZ7       0.037000
      8 C3           5.5360    -1.3110     2.8180 ca         1 MZ7      -0.219000
      9 C2           6.5860    -1.3690     1.9210 ca         1 MZ7       0.131400
     10 N1           7.8710    -1.4330     2.4510 nc         1 MZ7      -0.528100
     11 S1           6.0930    -1.3290     4.4790 ss         1 MZ7       0.056800
     12 C1           7.7340    -1.4180     3.7900 cd         1 MZ7       0.396100
     13 N11          1.7860     0.5210     0.7560 n3         1 MZ7      -0.766500
     14 C12          2.8870     1.5170     0.6880 c3         1 MZ7       0.213800
     15 C13          3.4160     1.8250    -0.7340 c3         1 MZ7      -0.109400
     16 C14          4.6240     2.7870    -0.7250 c3         1 MZ7      -0.073400
     17 C15          5.1630     3.0920    -2.1390 c3         1 MZ7      -0.075400
     18 C18          6.3710     4.0480    -2.1310 c3         1 MZ7      -0.089100
     19 C16          0.5390     0.9780     0.0790 c3         1 MZ7       0.196800
     20 C17         -0.7650     0.2980     0.5880 c3         1 MZ7       0.146300
     21 O18         -0.7900     0.3640     2.0270 oh         1 MZ7      -0.647000
     22 C19         -2.0790     0.8800    -0.0190 c3         1 MZ7       0.076700
     23 N20         -3.2330     0.0880     0.4320 ns         1 MZ7      -0.489900
     24 C21         -4.2010    -0.4540    -0.3880 c          1 MZ7       0.593100
     25 O22         -4.1290    -0.3880    -1.6100 o          1 MZ7      -0.600100
     26 C22         -5.3790    -1.1480     0.3580 c3         1 MZ7       0.028700
     27 C23         -4.9190    -2.4240     1.1320 c3         1 MZ7      -0.063700
     28 C25         -6.0190    -2.9800     2.0670 c3         1 MZ7      -0.089100
     29 C24         -4.3710    -3.5320     0.1990 c3         1 MZ7      -0.089100
     30 N26         -6.4830    -1.4370    -0.5900 ns         1 MZ7      -0.490900
     31 C27         -7.8230    -1.2670    -0.3290 c          1 MZ7       0.604100
     32 O28         -8.2430    -0.8480     0.7400 o          1 MZ7      -0.614100
     33 C29         -8.7460    -1.6360    -1.4820 c3         1 MZ7      -0.182100
     34 C32         -2.3260     2.3890     0.2650 c3         1 MZ7      -0.054100
     35 C38         -3.6750     2.8770    -0.2550 ca         1 MZ7      -0.086300
     36 C33         -3.8480     3.1530    -1.6250 ca         1 MZ7      -0.102500
     37 C34         -5.0960     3.5810    -2.1100 ca         1 MZ7      -0.103000
     38 C35         -6.1790     3.7330    -1.2290 ca         1 MZ7      -0.108000
     39 C36         -6.0130     3.4590     0.1390 ca         1 MZ7      -0.103000
     40 C37         -4.7650     3.0330     0.6250 ca         1 MZ7      -0.102500
     41 H6           4.7870    -1.2920    -0.9790 ha         1 MZ7       0.133000
     42 H7           7.1330    -1.4110    -0.1710 ha         1 MZ7       0.138000
     43 H4           3.3940    -1.1910     3.1410 ha         1 MZ7       0.151000
     44 H1           8.5710    -1.4570     4.4750 h5         1 MZ7       0.062800
     45 H121         2.5320     2.4640     1.1150 h1         1 MZ7       0.068200
     46 H122         3.7290     1.2210     1.3260 h1         1 MZ7       0.068200
     47 H131         3.7120     0.8980    -1.2350 hc         1 MZ7       0.045200
     48 H132         2.6120     2.2680    -1.3340 hc         1 MZ7       0.045200
     49 H141         4.3340     3.7270    -0.2380 hc         1 MZ7       0.041700
     50 H142         5.4280     2.3480    -0.1210 hc         1 MZ7       0.041700
     51 H151         5.4540     2.1540    -2.6280 hc         1 MZ7       0.038200
     52 H152         4.3620     3.5340    -2.7460 hc         1 MZ7       0.038200
     53 H181         6.7180     4.2350    -3.1540 hc         1 MZ7       0.034033
     54 H182         6.1020     5.0110    -1.6790 hc         1 MZ7       0.034033
     55 H183         7.2030     3.6180    -1.5600 hc         1 MZ7       0.034033
     56 H161         0.4300     2.0580     0.2410 h1         1 MZ7       0.055200
     57 H162         0.6140     0.8330    -1.0070 h1         1 MZ7       0.055200
     58 H17         -0.7230    -0.7540     0.2730 h1         1 MZ7       0.109700
     59 HO18         0.1550     0.2810     2.2900 ho         1 MZ7       0.434000
     60 H19         -1.9970     0.7700    -1.1100 h1         1 MZ7       0.097700
     61 HN20        -3.3560    -0.0300     1.4310 hn         1 MZ7       0.318500
     62 H22         -5.7350    -0.4120     1.0910 h1         1 MZ7       0.086700
     63 H23         -4.0910    -2.1250     1.7870 hc         1 MZ7       0.050700
     64 H251        -6.8650    -3.3740     1.4930 hc         1 MZ7       0.039200
     65 H252        -5.6230    -3.7930     2.6870 hc         1 MZ7       0.039200
     66 H253        -6.3910    -2.1960     2.7380 hc         1 MZ7       0.039200
     67 H241        -3.5380    -3.1610    -0.4090 hc         1 MZ7       0.039200
     68 H242        -4.0000    -4.3810     0.7870 hc         1 MZ7       0.039200
     69 H243        -5.1520    -3.9040    -0.4750 hc         1 MZ7       0.039200
     70 HN26        -6.2390    -1.7490    -1.5230 hn         1 MZ7       0.330500
     71 H291        -8.5420    -2.6700    -1.7850 hc         1 MZ7       0.061700
     72 H292        -9.8040    -1.4860    -1.2400 hc         1 MZ7       0.061700
     73 H293        -8.4500    -1.0700    -2.3720 hc         1 MZ7       0.061700
     74 H321        -2.2560     2.5700     1.3450 hc         1 MZ7       0.045700
     75 H322        -1.5290     2.9840    -0.1950 hc         1 MZ7       0.045700
     76 H33         -3.0160     3.0310    -2.3150 ha         1 MZ7       0.107000
     77 H34         -5.2240     3.7900    -3.1700 ha         1 MZ7       0.118000
     78 H35         -7.1460     4.0620    -1.6050 ha         1 MZ7       0.112000
     79 H36         -6.8520     3.5750     0.8230 ha         1 MZ7       0.118000
     80 H37         -4.6470     2.8180     1.6850 ha         1 MZ7       0.107000
@<TRIPOS>BOND
     1     1     2 2   
     2     2     3 2   
     3     2     4 1   
     4     2    13 1   
     5     4     5 ar  
     6     4     7 ar  
     7     5     6 ar  
     8     5    41 1   
     9     6     9 ar  
    10     6    42 1   
    11     7     8 ar  
    12     7    43 1   
    13     8     9 ar  
    14     8    11 1   
    15     9    10 1   
    16    10    12 2   
    17    11    12 1   
    18    12    44 1   
    19    13    14 1   
    20    13    19 1   
    21    14    15 1   
    22    14    45 1   
    23    14    46 1   
    24    15    16 1   
    25    15    47 1   
    26    15    48 1   
    27    16    17 1   
    28    16    49 1   
    29    16    50 1   
    30    17    18 1   
    31    17    51 1   
    32    17    52 1   
    33    18    53 1   
    34    18    54 1   
    35    18    55 1   
    36    19    20 1   
    37    19    56 1   
    38    19    57 1   
    39    20    21 1   
    40    20    22 1   
    41    20    58 1   
    42    21    59 1   
    43    22    23 1   
    44    22    34 1   
    45    22    60 1   
    46    23    24 1   
    47    23    61 1   
    48    24    25 2   
    49    24    26 1   
    50    26    27 1   
    51    26    30 1   
    52    26    62 1   
    53    27    28 1   
    54    27    29 1   
    55    27    63 1   
    56    28    64 1   
    57    28    65 1   
    58    28    66 1   
    59    29    67 1   
    60    29    68 1   
    61    29    69 1   
    62    30    31 1   
    63    30    70 1   
    64    31    32 2   
    65    31    33 1   
    66    33    71 1   
    67    33    72 1   
    68    33    73 1   
    69    34    35 1   
    70    34    74 1   
    71    34    75 1   
    72    35    36 ar  
    73    35    40 ar  
    74    36    37 ar  
    75    36    76 1   
    76    37    38 ar  
    77    37    77 1   
    78    38    39 ar  
    79    38    78 1   
    80    39    40 ar  
    81    39    79 1   
    82    40    80 1   
@<TRIPOS>SUBSTRUCTURE
     1 MZ7         1 TEMP              0 ****  ****    0 ROOT
