@<TRIPOS>MOLECULE
MZ7
   80    82     1     0     0
SMALL
abcg2


@<TRIPOS>ATOM
      1 O9           1.4130    -2.3950     0.3530 o          1 MZ7      -0.534000
      2 S8           2.4240    -1.6020     1.0340 sy         1 MZ7       1.181600
      3 O10          2.9650    -2.0590     2.3040 o          1 MZ7      -0.534000
      4 C5           3.7930    -1.4010    -0.0780 ca         1 MZ7      -0.289500
      5 C6           3.5270    -1.2380    -1.4450 ca         1 MZ7      -0.034000
      6 C7           4.5570    -0.9890    -2.3230 ca         1 MZ7      -0.072000
      7 C4           5.0730    -1.3380     0.4380 ca         1 MZ7       0.037000
      8 C3           6.1020    -1.0840    -0.4590 ca         1 MZ7      -0.219000
      9 C2           5.8620    -0.9040    -1.8320 ca         1 MZ7       0.131400
     10 N1           6.9820    -0.6600    -2.5870 nc         1 MZ7      -0.528100
     11 S1           7.7940    -0.9340    -0.1520 ss         1 MZ7       0.056800
     12 C1           8.0310    -0.6490    -1.8450 cd         1 MZ7       0.396100
     13 N11          1.7860    -0.1100     1.2590 n3         1 MZ7      -0.766500
     14 C12          2.5480     0.8930     2.0050 c3         1 MZ7       0.213800
     15 C13          3.3850     1.8320     1.1420 c3         1 MZ7      -0.109400
     16 C14          4.1670     2.8220     1.9940 c3         1 MZ7      -0.073400
     17 C15          5.0150     3.7760     1.1600 c3         1 MZ7      -0.075400
     18 C18          5.8130     4.7530     2.0110 c3         1 MZ7      -0.089100
     19 C16          0.6920     0.3380     0.4050 c3         1 MZ7       0.196800
     20 C17         -0.6740     0.0490     1.0180 c3         1 MZ7       0.146300
     21 O18         -0.8640     0.7330     2.2360 oh         1 MZ7      -0.647000
     22 C19         -1.8050     0.3120     0.0160 c3         1 MZ7       0.076700
     23 N20         -3.0680    -0.0460     0.6190 ns         1 MZ7      -0.489900
     24 C21         -4.0380    -0.7200    -0.0240 c          1 MZ7       0.593100
     25 O22         -3.8830    -1.2760    -1.0980 o          1 MZ7      -0.600100
     26 C22         -5.3650    -0.7780     0.7320 c3         1 MZ7       0.028700
     27 C23         -5.2790    -1.7380     1.9380 c3         1 MZ7      -0.063700
     28 C25         -6.5960    -1.7500     2.7040 c3         1 MZ7      -0.089100
     29 C24         -4.8670    -3.1510     1.5400 c3         1 MZ7      -0.089100
     30 N26         -6.4130    -1.1190    -0.1910 ns         1 MZ7      -0.490900
     31 C27         -7.5230    -0.3740    -0.3730 c          1 MZ7       0.604100
     32 O28         -7.8070     0.5910     0.3210 o          1 MZ7      -0.614100
     33 C29         -8.4030    -0.8510    -1.5030 c3         1 MZ7      -0.182100
     34 C32         -1.8520     1.7630    -0.5030 c3         1 MZ7      -0.054100
     35 C38         -3.0070     1.9680    -1.4410 ca         1 MZ7      -0.086300
     36 C33         -2.8660     1.7160    -2.8020 ca         1 MZ7      -0.102500
     37 C34         -3.9520     1.8160    -3.6610 ca         1 MZ7      -0.103000
     38 C35         -5.2030     2.1600    -3.1650 ca         1 MZ7      -0.108000
     39 C36         -5.3550     2.4210    -1.8100 ca         1 MZ7      -0.103000
     40 C37         -4.2620     2.3340    -0.9590 ca         1 MZ7      -0.102500
     41 H6           2.5160    -1.3160    -1.8220 ha         1 MZ7       0.133000
     42 H7           4.3680    -0.8640    -3.3810 ha         1 MZ7       0.138000
     43 H4           5.2690    -1.4740     1.4920 ha         1 MZ7       0.151000
     44 H1           9.0300    -0.4740    -2.2230 h5         1 MZ7       0.062800
     45 H121         1.8330     1.4660     2.5980 h1         1 MZ7       0.068200
     46 H122         3.1860     0.3810     2.7260 h1         1 MZ7       0.068200
     47 H131         4.0790     1.2540     0.5270 hc         1 MZ7       0.045200
     48 H132         2.7390     2.3800     0.4490 hc         1 MZ7       0.045200
     49 H141         3.4750     3.4010     2.6150 hc         1 MZ7       0.041700
     50 H142         4.8160     2.2750     2.6870 hc         1 MZ7       0.041700
     51 H151         5.6970     3.1950     0.5310 hc         1 MZ7       0.038200
     52 H152         4.3670     4.3290     0.4740 hc         1 MZ7       0.038200
     53 H181         6.4170     5.4200     1.3940 hc         1 MZ7       0.034033
     54 H182         5.1540     5.3750     2.6200 hc         1 MZ7       0.034033
     55 H183         6.4890     4.2280     2.6890 hc         1 MZ7       0.034033
     56 H161         0.8210     1.4120     0.2510 h1         1 MZ7       0.055200
     57 H162         0.7520    -0.1050    -0.5910 h1         1 MZ7       0.055200
     58 H17         -0.7180    -1.0120     1.2700 h1         1 MZ7       0.109700
     59 HO18        -0.7710     1.6810     2.0910 ho         1 MZ7       0.434000
     60 H19         -1.6520    -0.3550    -0.8340 h1         1 MZ7       0.097700
     61 HN20        -3.3070     0.4250     1.4780 hn         1 MZ7       0.318500
     62 H22         -5.5890     0.2190     1.1190 h1         1 MZ7       0.086700
     63 H23         -4.5110    -1.3320     2.6030 hc         1 MZ7       0.050700
     64 H251        -7.3930    -2.2040     2.1140 hc         1 MZ7       0.039200
     65 H252        -6.4960    -2.3310     3.6230 hc         1 MZ7       0.039200
     66 H253        -6.9140    -0.7430     2.9770 hc         1 MZ7       0.039200
     67 H241        -3.8720    -3.1840     1.0960 hc         1 MZ7       0.039200
     68 H242        -4.8520    -3.7980     2.4180 hc         1 MZ7       0.039200
     69 H243        -5.5690    -3.5900     0.8290 hc         1 MZ7       0.039200
     70 HN26        -6.2110    -1.8330    -0.8720 hn         1 MZ7       0.330500
     71 H291        -8.8180    -1.8340    -1.2740 hc         1 MZ7       0.061700
     72 H292        -9.2250    -0.1570    -1.6620 hc         1 MZ7       0.061700
     73 H293        -7.8370    -0.9450    -2.4300 hc         1 MZ7       0.061700
     74 H321        -1.9290     2.4600     0.3370 hc         1 MZ7       0.045700
     75 H322        -0.9130     1.9910    -1.0150 hc         1 MZ7       0.045700
     76 H33         -1.8970     1.4320    -3.1950 ha         1 MZ7       0.107000
     77 H34         -3.8220     1.6200    -4.7180 ha         1 MZ7       0.118000
     78 H35         -6.0530     2.2270    -3.8320 ha         1 MZ7       0.112000
     79 H36         -6.3250     2.6870    -1.4130 ha         1 MZ7       0.118000
     80 H37         -4.3920     2.5460     0.0960 ha         1 MZ7       0.107000
@<TRIPOS>BOND
     1     1     2 2   
     2     2     3 2   
     3     2     4 1   
     4     2    13 1   
     5     4     5 ar  
     6     4     7 ar  
     7     5     6 ar  
     8     5    41 1   
     9     6     9 ar  
    10     6    42 1   
    11     7     8 ar  
    12     7    43 1   
    13     8     9 ar  
    14     8    11 1   
    15     9    10 1   
    16    10    12 2   
    17    11    12 1   
    18    12    44 1   
    19    13    14 1   
    20    13    19 1   
    21    14    15 1   
    22    14    45 1   
    23    14    46 1   
    24    15    16 1   
    25    15    47 1   
    26    15    48 1   
    27    16    17 1   
    28    16    49 1   
    29    16    50 1   
    30    17    18 1   
    31    17    51 1   
    32    17    52 1   
    33    18    53 1   
    34    18    54 1   
    35    18    55 1   
    36    19    20 1   
    37    19    56 1   
    38    19    57 1   
    39    20    21 1   
    40    20    22 1   
    41    20    58 1   
    42    21    59 1   
    43    22    23 1   
    44    22    34 1   
    45    22    60 1   
    46    23    24 1   
    47    23    61 1   
    48    24    25 2   
    49    24    26 1   
    50    26    27 1   
    51    26    30 1   
    52    26    62 1   
    53    27    28 1   
    54    27    29 1   
    55    27    63 1   
    56    28    64 1   
    57    28    65 1   
    58    28    66 1   
    59    29    67 1   
    60    29    68 1   
    61    29    69 1   
    62    30    31 1   
    63    30    70 1   
    64    31    32 2   
    65    31    33 1   
    66    33    71 1   
    67    33    72 1   
    68    33    73 1   
    69    34    35 1   
    70    34    74 1   
    71    34    75 1   
    72    35    36 ar  
    73    35    40 ar  
    74    36    37 ar  
    75    36    76 1   
    76    37    38 ar  
    77    37    77 1   
    78    38    39 ar  
    79    38    78 1   
    80    39    40 ar  
    81    39    79 1   
    82    40    80 1   
@<TRIPOS>SUBSTRUCTURE
     1 MZ7         1 TEMP              0 ****  ****    0 ROOT
