@<TRIPOS>MOLECULE
MZ8
   69    72     1     0     0
SMALL
No Charge or Current Charge


@<TRIPOS>ATOM
      1 O9          -1.9820    -1.4050    -1.9960 o          1 MZ8      -0.538000
      2 S8          -2.3030    -0.1650    -1.2820 sy         1 MZ8       1.186600
      3 O10         -1.6650     1.1120    -1.6190 o          1 MZ8      -0.538000
      4 C5          -4.0940    -0.0030    -1.2950 ca         1 MZ8      -0.272500
      5 C4          -4.6940     1.2350    -1.6080 ca         1 MZ8       0.036000
      6 C3          -6.0940     1.3230    -1.5840 ca         1 MZ8      -0.218000
      7 S1          -7.0350     2.7630    -1.9390 ss         1 MZ8       0.052800
      8 C1          -8.4580     1.7470    -1.6150 cc         1 MZ8       0.396100
      9 N1          -8.2640     0.4620    -1.2750 nd         1 MZ8      -0.529100
     10 C2          -6.8920     0.2420    -1.2640 ca         1 MZ8       0.131400
     11 C7          -6.3050    -0.9920    -0.9490 ca         1 MZ8      -0.073000
     12 C6          -4.9020    -1.1160    -0.9640 ca         1 MZ8      -0.026000
     13 N11         -1.9820    -0.4860     0.3610 n3         1 MZ8      -0.789500
     14 C12         -2.4800     0.5530     1.2980 c3         1 MZ8       0.230800
     15 C13         -2.6370     0.0910     2.7730 c3         1 MZ8      -0.074700
     16 C14         -3.1130     1.2570     3.6690 c3         1 MZ8      -0.089100
     17 C15         -3.5820    -1.1290     2.9040 c3         1 MZ8      -0.089100
     18 C16         -0.6250    -1.0410     0.6450 c3         1 MZ8       0.200800
     19 C17          0.5990    -0.0660     0.5370 c3         1 MZ8       0.127300
     20 O18          0.6490     0.8620     1.6470 oh         1 MZ8      -0.652000
     21 C19          1.9630    -0.8140     0.4140 c3         1 MZ8       0.083700
     22 C32          2.2970    -1.7540     1.6070 c3         1 MZ8      -0.050100
     23 C38          3.6440    -2.4530     1.4520 ca         1 MZ8      -0.083300
     24 C33          3.7600    -3.5930     0.6330 ca         1 MZ8      -0.100500
     25 C34          5.0020    -4.2310     0.4770 ca         1 MZ8      -0.104500
     26 C35          6.1380    -3.7320     1.1380 ca         1 MZ8      -0.104000
     27 C36          6.0290    -2.5950     1.9550 ca         1 MZ8      -0.104500
     28 C37          4.7860    -1.9580     2.1130 ca         1 MZ8      -0.100500
     29 N20          3.0520     0.1520     0.2050 ns         1 MZ8      -0.495900
     30 C21          4.0140     0.0760    -0.7800 c          1 MZ8       0.619700
     31 O22          3.9860    -0.8010    -1.6350 o          1 MZ8      -0.592100
     32 C22          5.0980     1.1370    -0.7480 ca         1 MZ8      -0.108600
     33 C23          5.1410     2.1480     0.2460 ca         1 MZ8      -0.128000
     34 C24          6.1650     3.1110     0.2430 ca         1 MZ8      -0.078000
     35 C25          7.1600     3.0830    -0.7470 ca         1 MZ8      -0.190000
     36 C26          7.1310     2.0890    -1.7350 ca         1 MZ8       0.133100
     37 O27          8.0950     2.0560    -2.6990 oh         1 MZ8      -0.529100
     38 C27          6.1110     1.1250    -1.7360 ca         1 MZ8      -0.093000
     39 H4          -4.0930     2.1090    -1.8610 ha         1 MZ8       0.151000
     40 H1          -9.4360     2.2020    -1.7030 h5         1 MZ8       0.062800
     41 H7          -6.9280    -1.8450    -0.6930 ha         1 MZ8       0.138000
     42 H6          -4.4430    -2.0700    -0.7100 ha         1 MZ8       0.133000
     43 H121        -1.8280     1.4360     1.2640 h1         1 MZ8       0.055200
     44 H122        -3.4720     0.9030     0.9840 h1         1 MZ8       0.055200
     45 H13         -1.6530    -0.2090     3.1490 hc         1 MZ8       0.044700
     46 H141        -4.1050     1.6100     3.3590 hc         1 MZ8       0.037200
     47 H142        -3.1730     0.9410     4.7170 hc         1 MZ8       0.037200
     48 H143        -2.4150     2.1010     3.6100 hc         1 MZ8       0.037200
     49 H151        -4.5830    -0.8890     2.5240 hc         1 MZ8       0.037200
     50 H152        -3.1980    -1.9860     2.3380 hc         1 MZ8       0.037200
     51 H153        -3.6760    -1.4350     3.9530 hc         1 MZ8       0.037200
     52 H161        -0.6160    -1.4880     1.6470 h1         1 MZ8       0.064700
     53 H162        -0.4360    -1.8830    -0.0360 h1         1 MZ8       0.064700
     54 H17          0.4850     0.4980    -0.3980 h1         1 MZ8       0.101700
     55 HO18         0.6730     0.3360     2.4740 ho         1 MZ8       0.436000
     56 H19          1.8930    -1.4470    -0.4820 h1         1 MZ8       0.099700
     57 H321         2.2850    -1.1780     2.5400 hc         1 MZ8       0.045200
     58 H322         1.5110    -2.5110     1.7080 hc         1 MZ8       0.045200
     59 H33          2.8870    -3.9830     0.1140 ha         1 MZ8       0.107000
     60 H34          5.0860    -5.1110    -0.1580 ha         1 MZ8       0.113000
     61 H35          7.1000    -4.2250     1.0150 ha         1 MZ8       0.113000
     62 H36          6.9070    -2.2060     2.4660 ha         1 MZ8       0.113000
     63 H37          4.7130    -1.0750     2.7430 ha         1 MZ8       0.107000
     64 HN20         3.1210     0.9280     0.8500 hn         1 MZ8       0.322500
     65 H23          4.3910     2.2020     1.0300 ha         1 MZ8       0.113000
     66 H24          6.1870     3.8810     1.0120 ha         1 MZ8       0.113000
     67 H25          7.9470     3.8330    -0.7390 ha         1 MZ8       0.114000
     68 HO27         8.7170     2.7980    -2.5400 ho         1 MZ8       0.465000
     69 H27          6.1090     0.3630    -2.5120 ha         1 MZ8       0.151000
@<TRIPOS>BOND
     1     1     2 2   
     2     2     3 2   
     3     2     4 1   
     4     2    13 1   
     5     4     5 ar  
     6     4    12 ar  
     7     5     6 ar  
     8     5    39 1   
     9     6     7 1   
    10     6    10 ar  
    11     7     8 1   
    12     8     9 2   
    13     8    40 1   
    14     9    10 1   
    15    10    11 ar  
    16    11    12 ar  
    17    11    41 1   
    18    12    42 1   
    19    13    14 1   
    20    13    18 1   
    21    14    15 1   
    22    14    43 1   
    23    14    44 1   
    24    15    16 1   
    25    15    17 1   
    26    15    45 1   
    27    16    46 1   
    28    16    47 1   
    29    16    48 1   
    30    17    49 1   
    31    17    50 1   
    32    17    51 1   
    33    18    19 1   
    34    18    52 1   
    35    18    53 1   
    36    19    20 1   
    37    19    21 1   
    38    19    54 1   
    39    20    55 1   
    40    21    22 1   
    41    21    29 1   
    42    21    56 1   
    43    22    23 1   
    44    22    57 1   
    45    22    58 1   
    46    23    24 ar  
    47    23    28 ar  
    48    24    25 ar  
    49    24    59 1   
    50    25    26 ar  
    51    25    60 1   
    52    26    27 ar  
    53    26    61 1   
    54    27    28 ar  
    55    27    62 1   
    56    28    63 1   
    57    29    30 1   
    58    29    64 1   
    59    30    31 2   
    60    30    32 1   
    61    32    33 ar  
    62    32    38 ar  
    63    33    34 ar  
    64    33    65 1   
    65    34    35 ar  
    66    34    66 1   
    67    35    36 ar  
    68    35    67 1   
    69    36    37 1   
    70    36    38 ar  
    71    37    68 1   
    72    38    69 1   
@<TRIPOS>SUBSTRUCTURE
     1 MZ8         1 TEMP              0 ****  ****    0 ROOT
