@<TRIPOS>MOLECULE
MZ8
   69    72     1     0     0
SMALL
abcg2


@<TRIPOS>ATOM
      1 O9          -1.4350     0.3550    -2.0180 o          1 MZ8      -0.538000
      2 S8          -2.2550     1.0510    -1.0370 sy         1 MZ8       1.186600
      3 O10         -2.3410     2.5030    -1.0910 o          1 MZ8      -0.538000
      4 C5          -3.9090     0.4220    -1.1490 ca         1 MZ8      -0.272500
      5 C4          -4.9770     1.2900    -1.0460 ca         1 MZ8       0.036000
      6 C3          -6.2480     0.7330    -1.1000 ca         1 MZ8      -0.218000
      7 S1          -7.7810     1.5200    -0.9930 ss         1 MZ8       0.052800
      8 C1          -8.5390    -0.0290    -1.1690 cc         1 MZ8       0.396100
      9 N1          -7.7600    -1.0430    -1.2970 nd         1 MZ8      -0.529100
     10 C2          -6.4460    -0.6480    -1.2620 ca         1 MZ8       0.131400
     11 C7          -5.3420    -1.4980    -1.3760 ca         1 MZ8      -0.073000
     12 C6          -4.0770    -0.9590    -1.3180 ca         1 MZ8      -0.026000
     13 N11         -1.7560     0.5570     0.4430 n3         1 MZ8      -0.789500
     14 C12         -2.3390     1.2060     1.6170 c3         1 MZ8       0.230800
     15 C13         -2.7650     0.2320     2.7140 c3         1 MZ8      -0.074700
     16 C14         -3.4020     1.0340     3.8440 c3         1 MZ8      -0.089100
     17 C15         -3.7180    -0.8360     2.1920 c3         1 MZ8      -0.089100
     18 C16         -0.5640    -0.2670     0.5670 c3         1 MZ8       0.200800
     19 C17          0.7520     0.4960     0.4370 c3         1 MZ8       0.127300
     20 O18          0.9080     1.4810     1.4340 oh         1 MZ8      -0.652000
     21 C19          1.9480    -0.4670     0.3840 c3         1 MZ8       0.083700
     22 C32          2.0850    -1.3480     1.6380 c3         1 MZ8      -0.050100
     23 C38          3.2830    -2.2510     1.5490 ca         1 MZ8      -0.083300
     24 C33          3.2320    -3.4150     0.7860 ca         1 MZ8      -0.100500
     25 C34          4.3480    -4.2290     0.6570 ca         1 MZ8      -0.104500
     26 C35          5.5370    -3.8870     1.2890 ca         1 MZ8      -0.104000
     27 C36          5.5990    -2.7310     2.0540 ca         1 MZ8      -0.104500
     28 C37          4.4770    -1.9210     2.1820 ca         1 MZ8      -0.100500
     29 N20          3.1610     0.2840     0.1630 ns         1 MZ8      -0.495900
     30 C21          4.0150     0.0560    -0.8500 c          1 MZ8       0.619700
     31 O22          3.7910    -0.7300    -1.7600 o          1 MZ8      -0.592100
     32 C22          5.2790     0.8580    -0.8170 ca         1 MZ8      -0.108600
     33 C23          5.8810     1.2440     0.3790 ca         1 MZ8      -0.128000
     34 C24          7.0690     1.9590     0.3430 ca         1 MZ8      -0.078000
     35 C25          7.6560     2.3020    -0.8650 ca         1 MZ8      -0.190000
     36 C26          7.0540     1.9130    -2.0600 ca         1 MZ8       0.133100
     37 O27          7.5710     2.2140    -3.2660 oh         1 MZ8      -0.529100
     38 C27          5.8730     1.1790    -2.0310 ca         1 MZ8      -0.093000
     39 H4          -4.8350     2.3560    -0.9260 ha         1 MZ8       0.151000
     40 H1          -9.6180    -0.1000    -1.1650 h5         1 MZ8       0.062800
     41 H7          -5.4870    -2.5620    -1.5040 ha         1 MZ8       0.138000
     42 H6          -3.2170    -1.6100    -1.3950 ha         1 MZ8       0.133000
     43 H121        -1.6480     1.9500     2.0210 h1         1 MZ8       0.055200
     44 H122        -3.2320     1.7530     1.3020 h1         1 MZ8       0.055200
     45 H13         -1.8780    -0.2620     3.1250 hc         1 MZ8       0.044700
     46 H141        -4.3250     1.5150     3.5110 hc         1 MZ8       0.037200
     47 H142        -3.6490     0.3880     4.6870 hc         1 MZ8       0.037200
     48 H143        -2.7340     1.8140     4.2130 hc         1 MZ8       0.037200
     49 H151        -4.6040    -0.3830     1.7400 hc         1 MZ8       0.037200
     50 H152        -3.2520    -1.4710     1.4380 hc         1 MZ8       0.037200
     51 H153        -4.0520    -1.4820     3.0050 hc         1 MZ8       0.037200
     52 H161        -0.6260    -0.7570     1.5400 h1         1 MZ8       0.064700
     53 H162        -0.5900    -1.0760    -0.1640 h1         1 MZ8       0.064700
     54 H17          0.7480     1.0400    -0.5110 h1         1 MZ8       0.101700
     55 HO18         0.8340     1.0760     2.3040 ho         1 MZ8       0.436000
     56 H19          1.8090    -1.1190    -0.4790 h1         1 MZ8       0.099700
     57 H321         2.1660    -0.7210     2.5310 hc         1 MZ8       0.045200
     58 H322         1.1800    -1.9490     1.7540 hc         1 MZ8       0.045200
     59 H33          2.3080    -3.6900     0.2910 ha         1 MZ8       0.107000
     60 H34          4.2890    -5.1320     0.0630 ha         1 MZ8       0.113000
     61 H35          6.4090    -4.5210     1.1880 ha         1 MZ8       0.113000
     62 H36          6.5190    -2.4580     2.5540 ha         1 MZ8       0.113000
     63 H37          4.5300    -1.0260     2.7910 ha         1 MZ8       0.107000
     64 HN20         3.3750     1.0070     0.8320 hn         1 MZ8       0.322500
     65 H23          5.4580     0.9690     1.3360 ha         1 MZ8       0.113000
     66 H24          7.5490     2.2490     1.2680 ha         1 MZ8       0.113000
     67 H25          8.5800     2.8690    -0.8770 ha         1 MZ8       0.114000
     68 HO27         8.3860     2.7190    -3.1700 ho         1 MZ8       0.465000
     69 H27          5.4130     0.8730    -2.9630 ha         1 MZ8       0.151000
@<TRIPOS>BOND
     1     1     2 2   
     2     2     3 2   
     3     2     4 1   
     4     2    13 1   
     5     4     5 ar  
     6     4    12 ar  
     7     5     6 ar  
     8     5    39 1   
     9     6     7 1   
    10     6    10 ar  
    11     7     8 1   
    12     8     9 2   
    13     8    40 1   
    14     9    10 1   
    15    10    11 ar  
    16    11    12 ar  
    17    11    41 1   
    18    12    42 1   
    19    13    14 1   
    20    13    18 1   
    21    14    15 1   
    22    14    43 1   
    23    14    44 1   
    24    15    16 1   
    25    15    17 1   
    26    15    45 1   
    27    16    46 1   
    28    16    47 1   
    29    16    48 1   
    30    17    49 1   
    31    17    50 1   
    32    17    51 1   
    33    18    19 1   
    34    18    52 1   
    35    18    53 1   
    36    19    20 1   
    37    19    21 1   
    38    19    54 1   
    39    20    55 1   
    40    21    22 1   
    41    21    29 1   
    42    21    56 1   
    43    22    23 1   
    44    22    57 1   
    45    22    58 1   
    46    23    24 ar  
    47    23    28 ar  
    48    24    25 ar  
    49    24    59 1   
    50    25    26 ar  
    51    25    60 1   
    52    26    27 ar  
    53    26    61 1   
    54    27    28 ar  
    55    27    62 1   
    56    28    63 1   
    57    29    30 1   
    58    29    64 1   
    59    30    31 2   
    60    30    32 1   
    61    32    33 ar  
    62    32    38 ar  
    63    33    34 ar  
    64    33    65 1   
    65    34    35 ar  
    66    34    66 1   
    67    35    36 ar  
    68    35    67 1   
    69    36    37 1   
    70    36    38 ar  
    71    37    68 1   
    72    38    69 1   
@<TRIPOS>SUBSTRUCTURE
     1 MZ8         1 TEMP              0 ****  ****    0 ROOT
