@<TRIPOS>MOLECULE
MZ9
   77    78     1     0     0
SMALL
abcg2


@<TRIPOS>ATOM
      1 O22          3.4160    -1.4600     0.4730 o          1 MZ9      -0.603100
      2 C21          3.1180    -0.4860    -0.2010 c          1 MZ9       0.604100
      3 C22          4.1310     0.2810    -1.0230 c3         1 MZ9      -0.149400
      4 C23          5.3840    -0.5250    -1.3060 c3         1 MZ9      -0.173400
      5 C24          6.4340     0.2250    -2.0850 c          1 MZ9       0.568100
      6 O25          6.2790     1.3710    -2.4450 o          1 MZ9      -0.527100
      7 C26          7.6960    -0.5460    -2.3820 c3         1 MZ9      -0.181400
      8 C27          8.7360     0.2230    -3.1760 c3         1 MZ9      -0.078100
      9 N20          1.8650     0.0090    -0.2680 ns         1 MZ9      -0.503900
     10 C19          0.7810    -0.4180     0.5850 c3         1 MZ9       0.081700
     11 C32          0.5460     0.6160     1.7020 c3         1 MZ9      -0.054100
     12 C38          1.7870     0.8440     2.5180 ca         1 MZ9      -0.083300
     13 C37          2.6690     1.8730     2.2000 ca         1 MZ9      -0.102500
     14 C36          3.8440     2.0510     2.9180 ca         1 MZ9      -0.106000
     15 C35          4.1510     1.2020     3.9730 ca         1 MZ9      -0.105000
     16 C34          3.2730     0.1770     4.3040 ca         1 MZ9      -0.106000
     17 C33          2.1030     0.0010     3.5800 ca         1 MZ9      -0.102500
     18 C17         -0.4700    -0.6880    -0.2640 c3         1 MZ9       0.135300
     19 O18         -0.9890     0.4850    -0.8420 oh         1 MZ9      -0.656000
     20 C16         -1.5030    -1.4790     0.5450 c3         1 MZ9       0.188800
     21 N11         -2.7850    -1.6320    -0.1220 n3         1 MZ9      -0.778500
     22 C12         -2.8210    -2.1370    -1.4880 c3         1 MZ9       0.226800
     23 C13         -2.4420    -3.6140    -1.5920 c3         1 MZ9      -0.069700
     24 C14         -3.3190    -4.4740    -0.6920 c3         1 MZ9      -0.089100
     25 C15         -2.5310    -4.0210    -3.0650 c3         1 MZ9      -0.075400
     26 C18         -1.9800    -5.4070    -3.3700 c3         1 MZ9      -0.087100
     27 S8          -4.1120    -0.9880     0.5950 sy         1 MZ9       1.199600
     28 O10         -5.2730    -1.4050    -0.1760 o          1 MZ9      -0.541500
     29 O9          -4.0530    -1.2990     2.0150 o          1 MZ9      -0.541500
     30 C5          -3.9460     0.7630     0.4370 ca         1 MZ9      -0.346500
     31 C6          -4.2900     1.3780    -0.7660 ca         1 MZ9       0.021500
     32 C7          -4.0850     2.7300    -0.9280 ca         1 MZ9      -0.201000
     33 C4          -3.4040     1.5120     1.4710 ca         1 MZ9       0.021500
     34 C3          -3.1840     2.8730     1.3090 ca         1 MZ9      -0.201000
     35 C2          -3.5250     3.4920     0.1060 ca         1 MZ9       0.197100
     36 O19         -3.3560     4.7920    -0.1470 os         1 MZ9      -0.332100
     37 C20         -2.8000     5.6200     0.8610 c3         1 MZ9       0.144900
     38 H221         3.6710     0.6220    -1.9540 hc         1 MZ9       0.070200
     39 H222         4.3830     1.1880    -0.4640 hc         1 MZ9       0.070200
     40 H231         5.8430    -0.8710    -0.3750 hc         1 MZ9       0.076700
     41 H232         5.1450    -1.4390    -1.8580 hc         1 MZ9       0.076700
     42 H261         8.1090    -0.8850    -1.4260 hc         1 MZ9       0.060700
     43 H262         7.4100    -1.4660    -2.9020 hc         1 MZ9       0.060700
     44 H271         9.6220    -0.3920    -3.3290 hc         1 MZ9       0.041033
     45 H272         8.3590     0.5120    -4.1570 hc         1 MZ9       0.041033
     46 H273         9.0470     1.1290    -2.6570 hc         1 MZ9       0.041033
     47 HN20         1.7070     0.8280    -0.8350 hn         1 MZ9       0.318500
     48 H19          1.0850    -1.3630     1.0380 h1         1 MZ9       0.093700
     49 H321         0.2260     1.5660     1.2630 hc         1 MZ9       0.049700
     50 H322        -0.2610     0.2770     2.3540 hc         1 MZ9       0.049700
     51 H37          2.4360     2.5480     1.3850 ha         1 MZ9       0.108500
     52 H36          4.5190     2.8550     2.6550 ha         1 MZ9       0.113500
     53 H35          5.0650     1.3390     4.5350 ha         1 MZ9       0.113000
     54 H34          3.4990    -0.4860     5.1300 ha         1 MZ9       0.113500
     55 H33          1.4250    -0.8020     3.8450 ha         1 MZ9       0.108500
     56 H17         -0.1460    -1.3060    -1.1060 h1         1 MZ9       0.089700
     57 HO18        -1.4240     1.0160    -0.1670 ho         1 MZ9       0.445000
     58 H161        -1.0810    -2.4630     0.7690 h1         1 MZ9       0.063700
     59 H162        -1.6680    -1.0150     1.5190 h1         1 MZ9       0.063700
     60 H121        -3.8280    -2.0020    -1.8810 h1         1 MZ9       0.060200
     61 H122        -2.1630    -1.5350    -2.1200 h1         1 MZ9       0.060200
     62 H13         -1.3970    -3.7340    -1.2790 hc         1 MZ9       0.045700
     63 H141        -3.0730    -5.5320    -0.7850 hc         1 MZ9       0.039367
     64 H142        -3.1990    -4.2080     0.3580 hc         1 MZ9       0.039367
     65 H143        -4.3760    -4.3550    -0.9460 hc         1 MZ9       0.039367
     66 H151        -3.5760    -3.9600    -3.3880 hc         1 MZ9       0.038700
     67 H152        -1.9850    -3.2880    -3.6660 hc         1 MZ9       0.038700
     68 H181        -0.9340    -5.4900    -3.0690 hc         1 MZ9       0.033033
     69 H182        -2.5340    -6.1940    -2.8580 hc         1 MZ9       0.033033
     70 H183        -2.0310    -5.6170    -4.4390 hc         1 MZ9       0.033033
     71 H6          -4.7190     0.8090    -1.5800 ha         1 MZ9       0.135000
     72 H7          -4.3570     3.2120    -1.8570 ha         1 MZ9       0.129500
     73 H4          -3.1480     1.0520     2.4170 ha         1 MZ9       0.135000
     74 H3          -2.7550     3.4260     2.1320 ha         1 MZ9       0.129500
     75 H201        -2.7570     6.6220     0.4440 h1         1 MZ9       0.047367
     76 H202        -3.4200     5.6350     1.7600 h1         1 MZ9       0.047367
     77 H203        -1.7890     5.3050     1.1300 h1         1 MZ9       0.047367
@<TRIPOS>BOND
     1     1     2 2   
     2     2     3 1   
     3     2     9 1   
     4     3     4 1   
     5     3    38 1   
     6     3    39 1   
     7     4     5 1   
     8     4    40 1   
     9     4    41 1   
    10     5     6 2   
    11     5     7 1   
    12     7     8 1   
    13     7    42 1   
    14     7    43 1   
    15     8    44 1   
    16     8    45 1   
    17     8    46 1   
    18     9    10 1   
    19     9    47 1   
    20    10    11 1   
    21    10    18 1   
    22    10    48 1   
    23    11    12 1   
    24    11    49 1   
    25    11    50 1   
    26    12    13 ar  
    27    12    17 ar  
    28    13    14 ar  
    29    13    51 1   
    30    14    15 ar  
    31    14    52 1   
    32    15    16 ar  
    33    15    53 1   
    34    16    17 ar  
    35    16    54 1   
    36    17    55 1   
    37    18    19 1   
    38    18    20 1   
    39    18    56 1   
    40    19    57 1   
    41    20    21 1   
    42    20    58 1   
    43    20    59 1   
    44    21    22 1   
    45    21    27 1   
    46    22    23 1   
    47    22    60 1   
    48    22    61 1   
    49    23    24 1   
    50    23    25 1   
    51    23    62 1   
    52    24    63 1   
    53    24    64 1   
    54    24    65 1   
    55    25    26 1   
    56    25    66 1   
    57    25    67 1   
    58    26    68 1   
    59    26    69 1   
    60    26    70 1   
    61    27    28 2   
    62    27    29 2   
    63    27    30 1   
    64    30    31 ar  
    65    30    33 ar  
    66    31    32 ar  
    67    31    71 1   
    68    32    35 ar  
    69    32    72 1   
    70    33    34 ar  
    71    33    73 1   
    72    34    35 ar  
    73    34    74 1   
    74    35    36 1   
    75    36    37 1   
    76    37    75 1   
    77    37    76 1   
    78    37    77 1   
@<TRIPOS>SUBSTRUCTURE
     1 MZ9         1 TEMP              0 ****  ****    0 ROOT
