@<TRIPOS>MOLECULE
MZ9
   77    78     1     0     0
SMALL
No Charge or Current Charge


@<TRIPOS>ATOM
      1 O22          3.4300    -0.9640     0.8180 o          1 MZ9      -0.603100
      2 C21          3.3170    -0.3790    -0.2490 c          1 MZ9       0.604100
      3 C22          4.5210    -0.0670    -1.1450 c3         1 MZ9      -0.149400
      4 C23          5.0500    -1.3370    -1.8700 c3         1 MZ9      -0.173400
      5 C24          6.2390    -1.0190    -2.7910 c          1 MZ9       0.568100
      6 O25          6.0660    -0.5600    -3.9130 o          1 MZ9      -0.527100
      7 C26          7.6510    -1.3030    -2.2530 c3         1 MZ9      -0.181400
      8 C27          8.3170    -0.0270    -1.6940 c3         1 MZ9      -0.078100
      9 N20          2.1070     0.0690    -0.7280 ns         1 MZ9      -0.503900
     10 C19          0.8200    -0.0430    -0.0270 c3         1 MZ9       0.081700
     11 C32          0.3590     1.3580     0.4710 c3         1 MZ9      -0.054100
     12 C38          1.3110     1.9820     1.4840 ca         1 MZ9      -0.083300
     13 C37          2.3390     2.8470     1.0610 ca         1 MZ9      -0.102500
     14 C36          3.2110     3.4250     2.0000 ca         1 MZ9      -0.106000
     15 C35          3.0560     3.1450     3.3690 ca         1 MZ9      -0.105000
     16 C34          2.0290     2.2850     3.7960 ca         1 MZ9      -0.106000
     17 C33          1.1600     1.7060     2.8560 ca         1 MZ9      -0.102500
     18 C17         -0.2220    -0.7880    -0.9190 c3         1 MZ9       0.135300
     19 O18         -0.6500     0.0450    -2.0090 oh         1 MZ9      -0.656000
     20 C16         -1.4890    -1.2630    -0.1490 c3         1 MZ9       0.188800
     21 N11         -2.7240    -1.2770    -0.9920 n3         1 MZ9      -0.778500
     22 C12         -2.8320    -2.3200    -2.0540 c3         1 MZ9       0.226800
     23 C13         -2.4710    -3.7920    -1.6820 c3         1 MZ9      -0.069700
     24 C14         -3.3140    -4.3550    -0.5090 c3         1 MZ9      -0.089100
     25 C15         -2.5610    -4.6890    -2.9500 c3         1 MZ9      -0.075400
     26 C18         -2.0060    -6.1210    -2.7830 c3         1 MZ9      -0.087100
     27 S8          -4.1740    -0.7340    -0.2700 sy         1 MZ9       1.199600
     28 O10         -5.0670    -0.3910    -1.3820 o          1 MZ9      -0.541500
     29 O9          -4.5520    -1.6890     0.7740 o          1 MZ9      -0.541500
     30 C5          -3.6470     0.8230     0.4630 ca         1 MZ9      -0.346500
     31 C6          -3.3500     1.9180    -0.3690 ca         1 MZ9       0.021500
     32 C7          -2.8770     3.1140     0.1930 ca         1 MZ9      -0.201000
     33 C4          -3.4830     0.9340     1.8590 ca         1 MZ9       0.021500
     34 C3          -3.0000     2.1320     2.4140 ca         1 MZ9      -0.201000
     35 C2          -2.6880     3.2250     1.5790 ca         1 MZ9       0.197100
     36 O19         -2.1830     4.4130     2.0660 os         1 MZ9      -0.332100
     37 C20         -1.8080     4.5760     3.4450 c3         1 MZ9       0.144900
     38 H221         4.2390     0.6750    -1.9020 hc         1 MZ9       0.070200
     39 H222         5.3210     0.3380    -0.5140 hc         1 MZ9       0.070200
     40 H231         5.3580    -2.0550    -1.1010 hc         1 MZ9       0.076700
     41 H232         4.2390    -1.7600    -2.4740 hc         1 MZ9       0.076700
     42 H261         7.6030    -2.0320    -1.4360 hc         1 MZ9       0.060700
     43 H262         8.2740    -1.6910    -3.0680 hc         1 MZ9       0.060700
     44 H271         9.3310    -0.2490    -1.3390 hc         1 MZ9       0.041033
     45 H272         8.3890     0.7470    -2.4680 hc         1 MZ9       0.041033
     46 H273         7.7440     0.3780    -0.8520 hc         1 MZ9       0.041033
     47 HN20         2.1140     0.5300    -1.6300 hn         1 MZ9       0.318500
     48 H19          0.9690    -0.6670     0.8650 h1         1 MZ9       0.093700
     49 H321         0.2380     2.0280    -0.3880 hc         1 MZ9       0.049700
     50 H322        -0.6330     1.2800     0.9240 hc         1 MZ9       0.049700
     51 H37          2.4650     3.0700     0.0040 ha         1 MZ9       0.108500
     52 H36          4.0040     4.0910     1.6680 ha         1 MZ9       0.113500
     53 H35          3.7290     3.5930     4.0960 ha         1 MZ9       0.113000
     54 H34          1.9080     2.0680     4.8550 ha         1 MZ9       0.113500
     55 H33          0.3670     1.0420     3.1960 ha         1 MZ9       0.108500
     56 H17          0.2590    -1.6910    -1.3200 h1         1 MZ9       0.089700
     57 HO18        -1.6240    -0.1260    -2.0310 ho         1 MZ9       0.445000
     58 H161        -1.2940    -2.2540     0.2800 h1         1 MZ9       0.063700
     59 H162        -1.6200    -0.6120     0.7200 h1         1 MZ9       0.063700
     60 H121        -3.8410    -2.3180    -2.4880 h1         1 MZ9       0.060200
     61 H122        -2.1640    -2.0340    -2.8770 h1         1 MZ9       0.060200
     62 H13         -1.4210    -3.8050    -1.3670 hc         1 MZ9       0.045700
     63 H141        -3.0580    -5.3980    -0.2950 hc         1 MZ9       0.039367
     64 H142        -3.1240    -3.7940     0.4110 hc         1 MZ9       0.039367
     65 H143        -4.3860    -4.3030    -0.7370 hc         1 MZ9       0.039367
     66 H151        -3.6050    -4.7480    -3.2850 hc         1 MZ9       0.038700
     67 H152        -2.0020    -4.2100    -3.7630 hc         1 MZ9       0.038700
     68 H181        -0.9830    -6.0990    -2.3890 hc         1 MZ9       0.033033
     69 H182        -2.6300    -6.7160    -2.1070 hc         1 MZ9       0.033033
     70 H183        -1.9860    -6.6330    -3.7530 hc         1 MZ9       0.033033
     71 H6          -3.4680     1.8410    -1.4500 ha         1 MZ9       0.135000
     72 H7          -2.6360     3.9550    -0.4510 ha         1 MZ9       0.129500
     73 H4          -3.7050     0.0930     2.5140 ha         1 MZ9       0.135000
     74 H3          -2.8690     2.1880     3.4900 ha         1 MZ9       0.129500
     75 H201        -1.4010     5.5810     3.6120 h1         1 MZ9       0.047367
     76 H202        -2.6750     4.4470     4.1050 h1         1 MZ9       0.047367
     77 H203        -1.0370     3.8460     3.7260 h1         1 MZ9       0.047367
@<TRIPOS>BOND
     1     1     2 2   
     2     2     3 1   
     3     2     9 1   
     4     3     4 1   
     5     3    38 1   
     6     3    39 1   
     7     4     5 1   
     8     4    40 1   
     9     4    41 1   
    10     5     6 2   
    11     5     7 1   
    12     7     8 1   
    13     7    42 1   
    14     7    43 1   
    15     8    44 1   
    16     8    45 1   
    17     8    46 1   
    18     9    10 1   
    19     9    47 1   
    20    10    11 1   
    21    10    18 1   
    22    10    48 1   
    23    11    12 1   
    24    11    49 1   
    25    11    50 1   
    26    12    13 ar  
    27    12    17 ar  
    28    13    14 ar  
    29    13    51 1   
    30    14    15 ar  
    31    14    52 1   
    32    15    16 ar  
    33    15    53 1   
    34    16    17 ar  
    35    16    54 1   
    36    17    55 1   
    37    18    19 1   
    38    18    20 1   
    39    18    56 1   
    40    19    57 1   
    41    20    21 1   
    42    20    58 1   
    43    20    59 1   
    44    21    22 1   
    45    21    27 1   
    46    22    23 1   
    47    22    60 1   
    48    22    61 1   
    49    23    24 1   
    50    23    25 1   
    51    23    62 1   
    52    24    63 1   
    53    24    64 1   
    54    24    65 1   
    55    25    26 1   
    56    25    66 1   
    57    25    67 1   
    58    26    68 1   
    59    26    69 1   
    60    26    70 1   
    61    27    28 2   
    62    27    29 2   
    63    27    30 1   
    64    30    31 ar  
    65    30    33 ar  
    66    31    32 ar  
    67    31    71 1   
    68    32    35 ar  
    69    32    72 1   
    70    33    34 ar  
    71    33    73 1   
    72    34    35 ar  
    73    34    74 1   
    74    35    36 1   
    75    36    37 1   
    76    37    75 1   
    77    37    76 1   
    78    37    77 1   
@<TRIPOS>SUBSTRUCTURE
     1 MZ9         1 TEMP              0 ****  ****    0 ROOT
