@<TRIPOS>MOLECULE
MZA
   53    57     1     0     0
SMALL
bcc


@<TRIPOS>ATOM
      1 F1           1.1500    -0.4860    -1.2030 f          1 MZA      -0.144900
      2 C7           2.0790    -0.3050    -0.2530 ca         1 MZA       0.134900
      3 C6           2.7130     0.9250    -0.1710 ca         1 MZA      -0.107300
      4 C5           2.3720     2.0350    -1.1280 c6         1 MZA      -0.068100
      5 C1           2.8670     3.3790    -0.6060 c6         1 MZA       0.150800
      6 N1           4.2380     3.3290    -0.1280 n7         1 MZA      -0.786200
      7 C3           4.3670     2.4230     0.9940 c6         1 MZA       0.193100
      8 C11          3.6710     1.0900     0.8300 ca         1 MZA      -0.084300
      9 C10          3.9600     0.0400     1.6980 ca         1 MZA      -0.133000
     10 C9           3.3090    -1.1760     1.5890 ca         1 MZA      -0.085000
     11 C8           2.3490    -1.3600     0.6020 ca         1 MZA       0.004600
     12 N2           1.6220    -2.5610     0.4840 n          1 MZA      -0.403000
     13 C25          0.5670    -2.8380     1.2850 c          1 MZA       0.672500
     14 O3           0.2440    -2.2240     2.2790 o          1 MZA      -0.582500
     15 C12          1.8260    -3.5310    -0.5820 c5         1 MZA       0.104000
     16 C13          0.9490    -4.7020    -0.1290 c5         1 MZA      -0.107400
     17 C14         -0.1610    -4.0350     0.6720 c5         1 MZA       0.170500
     18 N3          -1.2100    -3.5990    -0.2450 n7         1 MZA      -0.857100
     19 S1          -2.5490    -2.7560     0.1900 sy         1 MZA       1.315200
     20 O1          -3.4930    -2.9360    -0.9000 o          1 MZA      -0.599800
     21 O2          -2.8930    -3.1740     1.5380 o          1 MZA      -0.599800
     22 C15         -2.1300    -1.0290     0.2220 ca         1 MZA      -0.292500
     23 C24         -2.0220    -0.3650    -0.9700 ca         1 MZA       0.000000
     24 C16         -1.9230    -0.3740     1.4520 ca         1 MZA      -0.024000
     25 C17         -1.5790     0.9470     1.4570 ca         1 MZA      -0.130000
     26 C18         -1.4350     1.6650     0.2480 ca         1 MZA       0.011000
     27 C19         -1.0710     3.0300     0.2380 ca         1 MZA      -0.123000
     28 C20         -0.9630     3.6880    -0.9530 ca         1 MZA       0.039400
     29 CL1         -0.4930     5.3530    -0.9760 cl         1 MZA      -0.105400
     30 C23         -1.6710     1.0000    -0.9810 ca         1 MZA      -0.067000
     31 C22         -1.5540     1.7240    -2.1900 ca         1 MZA      -0.090000
     32 C21         -1.2080     3.0460    -2.1840 ca         1 MZA      -0.136000
     33 H51C         2.8270     1.8270    -2.1020 hc         1 MZA       0.062200
     34 H52C         1.2960     2.0740    -1.3000 hc         1 MZA       0.062200
     35 H11C         2.7810     4.1340    -1.3890 h1         1 MZA       0.061200
     36 H12C         2.2320     3.7110     0.2210 h1         1 MZA       0.061200
     37 H1           4.8410     3.0200    -0.8810 hn         1 MZA       0.353800
     38 H31C         5.4270     2.2610     1.1990 h1         1 MZA       0.065200
     39 H32C         3.9580     2.9120     1.8860 h1         1 MZA       0.065200
     40 H10          4.7080     0.1770     2.4700 ha         1 MZA       0.141000
     41 H9           3.5400    -1.9900     2.2630 ha         1 MZA       0.148000
     42 H121         1.5200    -3.1310    -1.5520 h1         1 MZA       0.055200
     43 H122         2.8770    -3.8080    -0.6520 h1         1 MZA       0.055200
     44 H14         -0.5910    -4.6780     1.4380 h1         1 MZA       0.116700
     45 H131         0.5800    -5.3030    -0.9580 hc         1 MZA       0.073200
     46 H132         1.5160    -5.3540     0.5350 hc         1 MZA       0.073200
     47 H3          -0.9450    -3.4680    -1.2140 hn         1 MZA       0.436800
     48 H24         -2.2030    -0.8610    -1.9150 ha         1 MZA       0.145000
     49 H16         -2.0410    -0.9080     2.3830 ha         1 MZA       0.172000
     50 H17         -1.4160     1.4590     2.3970 ha         1 MZA       0.142000
     51 H19         -0.8800     3.5380     1.1750 ha         1 MZA       0.153000
     52 H21         -1.1130     3.5950    -3.1100 ha         1 MZA       0.150000
     53 H22         -1.7400     1.2210    -3.1300 ha         1 MZA       0.140000
@<TRIPOS>BOND
     1     1     2 1   
     2     2     3 ar  
     3     2    11 ar  
     4     3     4 1   
     5     3     8 ar  
     6     4     5 1   
     7     4    33 1   
     8     4    34 1   
     9     5     6 1   
    10     5    35 1   
    11     5    36 1   
    12     6     7 1   
    13     6    37 1   
    14     7     8 1   
    15     7    38 1   
    16     7    39 1   
    17     8     9 ar  
    18     9    10 ar  
    19     9    40 1   
    20    10    11 ar  
    21    10    41 1   
    22    11    12 1   
    23    12    13 1   
    24    12    15 1   
    25    13    14 2   
    26    13    17 1   
    27    15    16 1   
    28    15    42 1   
    29    15    43 1   
    30    16    17 1   
    31    16    45 1   
    32    16    46 1   
    33    17    18 1   
    34    17    44 1   
    35    18    19 1   
    36    18    47 1   
    37    19    20 2   
    38    19    21 2   
    39    19    22 1   
    40    22    23 ar  
    41    22    24 ar  
    42    23    30 ar  
    43    23    48 1   
    44    24    25 ar  
    45    24    49 1   
    46    25    26 ar  
    47    25    50 1   
    48    26    27 ar  
    49    26    30 ar  
    50    27    28 ar  
    51    27    51 1   
    52    28    29 1   
    53    28    32 ar  
    54    30    31 ar  
    55    31    32 ar  
    56    31    53 1   
    57    32    52 1   
@<TRIPOS>SUBSTRUCTURE
     1 MZA         1 TEMP              0 ****  ****    0 ROOT
