@<TRIPOS>MOLECULE
MZA
   53    57     1     0     0
SMALL
No Charge or Current Charge


@<TRIPOS>ATOM
      1 F1           1.5230    -0.3960    -1.6250 f          1 MZA      -0.180000
      2 C7           2.1690    -0.2100    -0.4510 ca         1 MZA       0.170000
      3 C6           2.7730     1.0430    -0.2090 ca         1 MZA      -0.107300
      4 C5           2.7600     2.1330    -1.2930 c6         1 MZA      -0.068100
      5 C1           3.1690     3.5270    -0.7650 c6         1 MZA       0.150800
      6 N1           4.3560     3.4180     0.1100 n7         1 MZA      -0.841400
      7 C3           4.0570     2.6440     1.3380 c6         1 MZA       0.193100
      8 C11          3.4080     1.2870     1.0290 ca         1 MZA      -0.084300
      9 C10          3.4020     0.2860     2.0130 ca         1 MZA      -0.115000
     10 C9           2.8000    -0.9580     1.7650 ca         1 MZA      -0.067000
     11 C8           2.2290    -1.2560     0.5080 ca         1 MZA      -0.088000
     12 N2           1.4590    -2.4730     0.3310 n          1 MZA      -0.243400
     13 C25          0.6240    -3.0510     1.3100 c          1 MZA       0.530000
     14 O3           0.5510    -2.7230     2.4890 o          1 MZA      -0.507000
     15 C12          1.4550    -3.2210    -0.9520 c5         1 MZA       0.104000
     16 C13          0.8000    -4.5790    -0.5540 c5         1 MZA      -0.107400
     17 C14         -0.1890    -4.1470     0.5590 c5         1 MZA       0.170500
     18 N3          -1.4240    -3.6670    -0.1620 n7         1 MZA      -0.912300
     19 S1          -2.6440    -2.8750     0.6580 sy         1 MZA       1.173600
     20 O1          -3.8450    -3.0940    -0.1490 o          1 MZA      -0.529000
     21 O2          -2.5530    -3.3030     2.0550 o          1 MZA      -0.529000
     22 C15         -2.0640    -1.1830     0.4850 ca         1 MZA      -0.292500
     23 C24         -2.1630    -0.5330    -0.7630 ca         1 MZA       0.018000
     24 C16         -1.4970    -0.5030     1.5840 ca         1 MZA      -0.006000
     25 C17         -1.0110     0.8060     1.4280 ca         1 MZA      -0.112000
     26 C18         -1.1000     1.4520     0.1830 ca         1 MZA       0.011000
     27 C19         -0.6240     2.7670     0.0300 ca         1 MZA      -0.105000
     28 C20         -0.7300     3.4120    -1.2130 ca         1 MZA       0.131000
     29 Cl1         -0.1440     5.0590    -1.4010 cl         1 MZA      -0.197000
     30 C23         -1.6800     0.7810    -0.9170 ca         1 MZA      -0.067000
     31 C22         -1.7740     1.4300    -2.1630 ca         1 MZA      -0.072000
     32 C21         -1.2990     2.7450    -2.3090 ca         1 MZA      -0.118000
     33 H51C         3.4490     1.8380    -2.0950 hc         1 MZA       0.062200
     34 H52C         1.7680     2.2020    -1.7580 hc         1 MZA       0.062200
     35 H11C         3.3810     4.1950    -1.6140 h1         1 MZA       0.061200
     36 H12C         2.3350     3.9670    -0.1980 h1         1 MZA       0.061200
     37 H1           5.0870     2.9180    -0.4110 hn         1 MZA       0.409000
     38 H31C         4.9850     2.4870     1.9090 h1         1 MZA       0.065200
     39 H32C         3.3740     3.2220     1.9790 h1         1 MZA       0.065200
     40 H10          3.8600     0.4730     2.9810 ha         1 MZA       0.123000
     41 H9           2.8170    -1.7050     2.5540 ha         1 MZA       0.130000
     42 H121         0.8500    -2.7080    -1.7100 h1         1 MZA       0.055200
     43 H122         2.4690    -3.3540    -1.3530 h1         1 MZA       0.055200
     44 H14         -0.4100    -4.9650     1.2600 h1         1 MZA       0.116700
     45 H131         0.3240    -5.0930    -1.3960 hc         1 MZA       0.073200
     46 H132         1.5560    -5.2610    -0.1470 hc         1 MZA       0.073200
     47 H3          -1.1620    -2.9330    -0.8170 hn         1 MZA       0.492000
     48 H24         -2.6110    -1.0440    -1.6140 ha         1 MZA       0.127000
     49 H16         -1.4260    -0.9810     2.5600 ha         1 MZA       0.154000
     50 H17         -0.5670     1.3170     2.2790 ha         1 MZA       0.124000
     51 H19         -0.1780     3.2910     0.8710 ha         1 MZA       0.135000
     52 H21         -1.3750     3.2480    -3.2700 ha         1 MZA       0.132000
     53 H22         -2.2160     0.9210    -3.0170 ha         1 MZA       0.122000
@<TRIPOS>BOND
     1     1     2 1   
     2     2     3 ar  
     3     2    11 ar  
     4     3     4 1   
     5     3     8 ar  
     6     4     5 1   
     7     4    33 1   
     8     4    34 1   
     9     5     6 1   
    10     5    35 1   
    11     5    36 1   
    12     6     7 1   
    13     6    37 1   
    14     7     8 1   
    15     7    38 1   
    16     7    39 1   
    17     8     9 ar  
    18     9    10 ar  
    19     9    40 1   
    20    10    11 ar  
    21    10    41 1   
    22    11    12 1   
    23    12    13 1   
    24    12    15 1   
    25    13    14 2   
    26    13    17 1   
    27    15    16 1   
    28    15    42 1   
    29    15    43 1   
    30    16    17 1   
    31    16    45 1   
    32    16    46 1   
    33    17    18 1   
    34    17    44 1   
    35    18    19 1   
    36    18    47 1   
    37    19    20 2   
    38    19    21 2   
    39    19    22 1   
    40    22    23 ar  
    41    22    24 ar  
    42    23    30 ar  
    43    23    48 1   
    44    24    25 ar  
    45    24    49 1   
    46    25    26 ar  
    47    25    50 1   
    48    26    27 ar  
    49    26    30 ar  
    50    27    28 ar  
    51    27    51 1   
    52    28    29 1   
    53    28    32 ar  
    54    30    31 ar  
    55    31    32 ar  
    56    31    53 1   
    57    32    52 1   
@<TRIPOS>SUBSTRUCTURE
     1 MZA         1 TEMP              0 ****  ****    0 ROOT
