@<TRIPOS>MOLECULE
MZB
   25    25     1     0     0
SMALL
bcc


@<TRIPOS>ATOM
      1 O6          -2.8270    -1.0320     0.2450 o          1 MZB      -0.483200
      2 S6          -2.0290     0.2180     0.5510 s4         1 MZB       0.129600
      3 C7          -2.6040     1.4850    -0.5950 c3         1 MZB      -0.052800
      4 C1          -0.3710    -0.0150    -0.1530 c5         1 MZB      -0.029400
      5 C5           0.2710    -1.3000     0.3890 c5         1 MZB       0.198500
      6 N5          -0.0920    -2.4610    -0.3940 n8         1 MZB      -0.863800
      7 C4           1.7590    -0.9660     0.3440 c5         1 MZB       0.126100
      8 O4           2.2090    -0.9890    -0.9860 oh         1 MZB      -0.555800
      9 C3           1.7620     0.4550     0.9060 c5         1 MZB       0.061100
     10 O3           2.9370     1.1760     0.6510 oh         1 MZB      -0.592800
     11 C2           0.5540     1.1490     0.2350 c5         1 MZB       0.192100
     12 O2           0.8750     1.8730    -0.9200 oh         1 MZB      -0.572800
     13 H7          -3.6200     1.7520    -0.3090 h1         1 MZB       0.083033
     14 H7A         -1.9690     2.3670    -0.5300 h1         1 MZB       0.083033
     15 H7B         -2.5920     1.0850    -1.6080 h1         1 MZB       0.083033
     16 H1          -0.4650    -0.0870    -1.2400 h1         1 MZB       0.137700
     17 H5           0.0160    -1.4020     1.4580 h1         1 MZB       0.006700
     18 HN5          0.3100    -3.2890     0.0290 hn         1 MZB       0.355800
     19 HN5A        -1.0960    -2.5790    -0.3420 hn         1 MZB       0.355800
     20 H4           2.3420    -1.6550     0.9740 h1         1 MZB       0.036700
     21 HO4          2.9540    -0.3810    -1.0490 ho         1 MZB       0.410000
     22 H3           1.5550     0.3900     1.9820 h1         1 MZB       0.036700
     23 HO3          3.6050     0.9190     1.2950 ho         1 MZB       0.414000
     24 H2           0.0740     1.8080     0.9750 h1         1 MZB       0.023700
     25 HO2          1.4250     2.6210    -0.6640 ho         1 MZB       0.417000
@<TRIPOS>BOND
     1     1     2 2   
     2     2     3 1   
     3     2     4 1   
     4     3    13 1   
     5     3    14 1   
     6     3    15 1   
     7     4     5 1   
     8     4    11 1   
     9     4    16 1   
    10     5     6 1   
    11     5     7 1   
    12     5    17 1   
    13     6    18 1   
    14     6    19 1   
    15     7     8 1   
    16     7     9 1   
    17     7    20 1   
    18     8    21 1   
    19     9    10 1   
    20     9    11 1   
    21     9    22 1   
    22    10    23 1   
    23    11    12 1   
    24    11    24 1   
    25    12    25 1   
@<TRIPOS>SUBSTRUCTURE
     1 MZB         1 TEMP              0 ****  ****    0 ROOT
