@<TRIPOS>MOLECULE
MZB
   25    25     1     0     0
SMALL
No Charge or Current Charge


@<TRIPOS>ATOM
      1 O6          -2.8860    -1.1400    -0.1090 o          1 MZB      -0.510000
      2 S6          -2.1520     0.0810     0.4010 s4         1 MZB       0.156400
      3 C7          -2.6410     1.4930    -0.6840 c3         1 MZB      -0.052800
      4 C1          -0.3680    -0.0470    -0.1780 c5         1 MZB      -0.029400
      5 C5           0.2990    -1.3040     0.4410 c5         1 MZB       0.198500
      6 N5          -0.1650    -2.5680    -0.1640 n8         1 MZB      -0.974200
      7 C4           1.8150    -0.9490     0.2290 c5         1 MZB       0.149300
      8 O4           2.2300    -0.9150    -1.1480 oh         1 MZB      -0.678000
      9 C3           1.8270     0.4790     0.8640 c5         1 MZB       0.084300
     10 O3           2.9730     1.2560     0.4560 oh         1 MZB      -0.655000
     11 C2           0.4680     1.1340     0.4110 c5         1 MZB       0.215300
     12 O2           0.7280     2.1370    -0.5660 oh         1 MZB      -0.695000
     13 H7          -3.7280     1.6250    -0.6220 h1         1 MZB       0.083033
     14 H7A         -2.1350     2.4020    -0.3380 h1         1 MZB       0.083033
     15 H7B         -2.3510     1.2710    -1.7180 h1         1 MZB       0.083033
     16 H1          -0.3440    -0.0680    -1.2740 h1         1 MZB       0.137700
     17 H5           0.0620    -1.3660     1.5130 h1         1 MZB       0.006700
     18 HN5          0.0250    -3.3420     0.4820 hn         1 MZB       0.411000
     19 HN5A        -1.1930    -2.5290    -0.2030 hn         1 MZB       0.411000
     20 H4           2.4600    -1.6330     0.7980 h1         1 MZB       0.036700
     21 HO4          2.8620    -0.1600    -1.1990 ho         1 MZB       0.509000
     22 H3           1.8210     0.3840     1.9590 h1         1 MZB       0.036700
     23 HO3          3.6950     1.0800     1.1040 ho         1 MZB       0.453000
     24 H2          -0.0320     1.5790     1.2820 h1         1 MZB       0.023700
     25 HO2          1.7120     2.2420    -0.4940 ho         1 MZB       0.516000
@<TRIPOS>BOND
     1     1     2 2   
     2     2     3 1   
     3     2     4 1   
     4     3    13 1   
     5     3    14 1   
     6     3    15 1   
     7     4     5 1   
     8     4    11 1   
     9     4    16 1   
    10     5     6 1   
    11     5     7 1   
    12     5    17 1   
    13     6    18 1   
    14     6    19 1   
    15     7     8 1   
    16     7     9 1   
    17     7    20 1   
    18     8    21 1   
    19     9    10 1   
    20     9    11 1   
    21     9    22 1   
    22    10    23 1   
    23    11    12 1   
    24    11    24 1   
    25    12    25 1   
@<TRIPOS>SUBSTRUCTURE
     1 MZB         1 TEMP              0 ****  ****    0 ROOT
