@<TRIPOS>MOLECULE
MZC
   37    38     1     0     0
SMALL
No Charge or Current Charge


@<TRIPOS>ATOM
      1 C1          -0.9340     0.4060     0.2440 ca         1 MZC      -0.089000
      2 N1          -0.2940     3.9290    -0.0760 na         1 MZC      -0.219700
      3 C2          -0.3650     1.6880     0.2240 ca         1 MZC      -0.068800
      4 N2           3.7700    -0.4810     0.3470 ns         1 MZC      -0.510900
      5 O2          -1.4370    -2.6070     0.4890 o          1 MZC      -0.527000
      6 C3          -1.0760     2.7910    -0.1520 ca         1 MZC      -0.071200
      7 O3          -3.6070    -3.1250    -0.0530 os         1 MZC      -0.462100
      8 C4          -2.4160     2.6940    -0.5450 ca         1 MZC      -0.097000
      9 C5          -3.0190     1.4180    -0.5410 ca         1 MZC      -0.138000
     10 C6          -2.2900     0.2680    -0.1490 ca         1 MZC      -0.037000
     11 C7           0.9620     2.1190     0.5660 cc         1 MZC      -0.146400
     12 C8           0.9770     3.4970     0.3750 cd         1 MZC      -0.148100
     13 C10          2.1020     1.2470     1.0210 c3         1 MZC      -0.016200
     14 C11          2.6680     0.3680    -0.1110 c3         1 MZC       0.103000
     15 C13          4.4680    -1.3470    -0.4600 c          1 MZC       0.598100
     16 C14          5.5720    -2.1280     0.2410 c3         1 MZC      -0.179100
     17 C17         -2.5550    -2.2680     0.1270 c          1 MZC       0.644100
     18 C18         -3.3870    -4.5250     0.2030 c3         1 MZC       0.171900
     19 OXT          4.2190    -1.4790    -1.6500 o          1 MZC      -0.609100
     20 H1          -0.3340    -0.4400     0.5590 ha         1 MZC       0.153000
     21 HN2          4.0480    -0.4380     1.3210 hn         1 MZC       0.308500
     22 HN3         -3.9370    -0.9230    -0.4550 hn         1 MZC       0.163000
     23 H4          -2.9780     3.5760    -0.8440 ha         1 MZC       0.115000
     24 H5          -4.0590     1.3240    -0.8440 ha         1 MZC       0.110000
     25 H8           1.7970     4.1970     0.5220 h4         1 MZC       0.212000
     26 H10          2.9080     1.8720     1.4250 hc         1 MZC       0.046700
     27 H10A         1.7640     0.6030     1.8420 hc         1 MZC       0.046700
     28 H11          3.0300     1.0130    -0.9240 h1         1 MZC       0.056700
     29 H11A         1.8720    -0.2720    -0.5130 h1         1 MZC       0.056700
     30 H14          5.1440    -2.6620     1.0960 hc         1 MZC       0.057367
     31 H14A         6.1050    -2.8070    -0.4350 hc         1 MZC       0.057367
     32 H14B         6.2560    -1.4220     0.7260 hc         1 MZC       0.057367
     33 H18         -2.6040    -4.9250    -0.4540 h1         1 MZC       0.049367
     34 H18A        -3.0850    -4.6900     1.2450 h1         1 MZC       0.049367
     35 H18B        -4.3060    -5.0960     0.0210 h1         1 MZC       0.049367
     36 HN1         -0.5740     4.8800    -0.2990 hn         1 MZC       0.351000
     37 N3          -2.9690    -0.9820    -0.1700 ns         1 MZC      -0.138000
@<TRIPOS>BOND
     1     1     3 ar  
     2     1    10 ar  
     3     1    20 1   
     4     2     6 1   
     5     2    12 1   
     6     2    36 1   
     7     3     6 ar  
     8     3    11 1   
     9     4    14 1   
    10     4    15 1   
    11     4    21 1   
    12     5    17 2   
    13     6     8 ar  
    14     7    17 1   
    15     7    18 1   
    16     8     9 ar  
    17     8    23 1   
    18     9    10 ar  
    19     9    24 1   
    20    10    37 1   
    21    11    12 2   
    22    11    13 1   
    23    12    25 1   
    24    13    14 1   
    25    13    26 1   
    26    13    27 1   
    27    14    28 1   
    28    14    29 1   
    29    15    16 1   
    30    15    19 2   
    31    16    30 1   
    32    16    31 1   
    33    16    32 1   
    34    17    37 1   
    35    18    33 1   
    36    18    34 1   
    37    18    35 1   
    38    22    37 1   
@<TRIPOS>SUBSTRUCTURE
     1 MZC         1 TEMP              0 ****  ****    0 ROOT
