@<TRIPOS>MOLECULE
MZC
   37    38     1     0     0
SMALL
bcc


@<TRIPOS>ATOM
      1 C1          -0.9650     0.3180     0.2000 ca         1 MZC      -0.107000
      2 N1          -0.2720     3.8060    -0.0120 na         1 MZC      -0.169400
      3 C2          -0.3660     1.5830     0.2310 ca         1 MZC      -0.068800
      4 N2           3.7960    -0.4220     0.3690 ns         1 MZC      -0.577900
      5 O2          -1.5470    -2.5260     0.5770 o          1 MZC      -0.576000
      6 C3          -1.0960     2.7260    -0.1480 ca         1 MZC      -0.071200
      7 O3          -3.6190    -3.0830    -0.0950 os         1 MZC      -0.438900
      8 C4          -2.4220     2.6310    -0.5630 ca         1 MZC      -0.115000
      9 C5          -2.9990     1.3800    -0.5850 ca         1 MZC      -0.156000
     10 C6          -2.2860     0.2210    -0.2050 ca         1 MZC       0.055600
     11 C7           0.9430     2.0270     0.6090 cc         1 MZC      -0.146400
     12 C8           0.9440     3.3850     0.4430 cd         1 MZC      -0.098100
     13 C10          2.0760     1.1670     1.0570 c3         1 MZC      -0.016200
     14 C11          2.7520     0.4570    -0.1120 c3         1 MZC       0.103000
     15 C13          4.4850    -1.2470    -0.4330 c          1 MZC       0.665100
     16 C14          5.5680    -2.0550     0.2380 c3         1 MZC      -0.179100
     17 C17         -2.6220    -2.2190     0.1110 c          1 MZC       0.760100
     18 C18         -3.3710    -4.4430     0.2460 c3         1 MZC       0.148700
     19 OXT          4.2580    -1.3360    -1.6340 o          1 MZC      -0.609100
     20 H1          -0.4020    -0.5560     0.4910 ha         1 MZC       0.171000
     21 HN2          4.0520    -0.3660     1.3420 hn         1 MZC       0.308500
     22 HN3         -3.9460    -0.9020    -0.6390 hn         1 MZC       0.329500
     23 H4          -2.9910     3.5040    -0.8550 ha         1 MZC       0.133000
     24 H5          -4.0310     1.2840    -0.9000 ha         1 MZC       0.128000
     25 H8           1.7380     4.0940     0.6220 h4         1 MZC       0.162000
     26 H10          2.8150     1.7720     1.5900 hc         1 MZC       0.046700
     27 H10A         1.7150     0.4170     1.7680 hc         1 MZC       0.046700
     28 H11          3.1660     1.2010    -0.8000 h1         1 MZC       0.056700
     29 H11A         2.0160    -0.1210    -0.6760 h1         1 MZC       0.056700
     30 H14          5.5900    -1.9410     1.3200 hc         1 MZC       0.057367
     31 H14A         5.4350    -3.1110     0.0030 hc         1 MZC       0.057367
     32 H14B         6.5390    -1.7550    -0.1570 hc         1 MZC       0.057367
     33 H18         -2.5480    -4.8600    -0.3340 h1         1 MZC       0.049367
     34 H18A        -3.1550    -4.5600     1.3080 h1         1 MZC       0.049367
     35 H18B        -4.2840    -4.9800     0.0070 h1         1 MZC       0.049367
     36 HN1         -0.5230     4.7640    -0.1880 hn         1 MZC       0.300700
     37 N3          -3.0070    -0.9810    -0.2780 ns         1 MZC      -0.464100
@<TRIPOS>BOND
     1     1     3 ar  
     2     1    10 ar  
     3     1    20 1   
     4     2     6 1   
     5     2    12 1   
     6     2    36 1   
     7     3     6 ar  
     8     3    11 1   
     9     4    14 1   
    10     4    15 1   
    11     4    21 1   
    12     5    17 2   
    13     6     8 ar  
    14     7    17 1   
    15     7    18 1   
    16     8     9 ar  
    17     8    23 1   
    18     9    10 ar  
    19     9    24 1   
    20    10    37 1   
    21    11    12 2   
    22    11    13 1   
    23    12    25 1   
    24    13    14 1   
    25    13    26 1   
    26    13    27 1   
    27    14    28 1   
    28    14    29 1   
    29    15    16 1   
    30    15    19 2   
    31    16    30 1   
    32    16    31 1   
    33    16    32 1   
    34    17    37 1   
    35    18    33 1   
    36    18    34 1   
    37    18    35 1   
    38    22    37 1   
@<TRIPOS>SUBSTRUCTURE
     1 MZC         1 TEMP              0 ****  ****    0 ROOT
