@<TRIPOS>MOLECULE
MZF
   26    28     1     0     0
SMALL
No Charge or Current Charge


@<TRIPOS>ATOM
      1 N1           5.4630    -0.1530    17.5980 nc         1 MZF      -0.350300
      2 C4           5.3060     2.0510    17.7960 cc         1 MZF       0.491900
      3 C5           7.9730    -0.8700    20.7820 ca         1 MZF      -0.006000
      4 C6           8.9990    -1.7950    20.7680 ca         1 MZF      -0.137300
      5 C7          10.2520    -1.4860    21.3190 ca         1 MZF      -0.011000
      6 C8          10.4420    -0.2030    21.8750 ca         1 MZF      -0.044900
      7 C10          8.1480     0.4240    21.2960 ca         1 MZF      -0.139000
      8 Br          12.1350     0.2580    22.6360 br         1 MZF      -0.100100
      9 C            8.5610    -3.0690    20.0670 c5         1 MZF       0.152600
     10 O            8.6480    -4.2090    20.9440 oh         1 MZF      -0.629000
     11 C9           9.3980     0.7500    21.8600 ca         1 MZF      -0.044000
     12 N            6.8550    -1.4240    20.1200 n          1 MZF      -0.218400
     13 C1           7.0660    -2.7410    19.6620 c          1 MZF       0.538000
     14 O1           6.2350    -3.4500    19.1030 o          1 MZF      -0.512000
     15 C2           5.5470    -0.7370    20.0070 c3         1 MZF       0.081700
     16 C3           5.4540     0.2420    18.8610 cd         1 MZF       0.525300
     17 N2           5.3550     1.6050    19.0390 nd         1 MZF      -0.717000
     18 O2           5.3640     1.0530    16.8690 os         1 MZF      -0.106700
     19 H1           5.2260     3.0760    17.4550 h5         1 MZF       0.090100
     20 H3           7.3470     1.1580    21.2680 ha         1 MZF       0.129000
     21 H4           9.1400    -3.2220    19.1450 h1         1 MZF       0.077700
     22 H5           8.2590    -4.9740    20.4620 ho         1 MZF       0.462000
     23 H6           9.5620     1.7410    22.2780 ha         1 MZF       0.133000
     24 H7           5.3460    -0.2000    20.9410 h1         1 MZF       0.095200
     25 H8           4.7500    -1.4800    19.8870 h1         1 MZF       0.095200
     26 H2          11.0590    -2.2150    21.3110 ha         1 MZF       0.143000
@<TRIPOS>BOND
     1     1    16 2   
     2     1    18 1   
     3     2    17 2   
     4     2    18 1   
     5     2    19 1   
     6     3     4 ar  
     7     3     7 ar  
     8     3    12 1   
     9     4     5 ar  
    10     4     9 1   
    11     5     6 ar  
    12     5    26 1   
    13     6     8 1   
    14     6    11 ar  
    15     7    11 ar  
    16     7    20 1   
    17     9    10 1   
    18     9    13 1   
    19     9    21 1   
    20    10    22 1   
    21    11    23 1   
    22    12    13 1   
    23    12    15 1   
    24    13    14 2   
    25    15    16 1   
    26    15    24 1   
    27    15    25 1   
    28    16    17 1   
@<TRIPOS>SUBSTRUCTURE
     1 MZF         1 TEMP              0 ****  ****    0 ROOT
