@<TRIPOS>MOLECULE
MZF
   26    28     1     0     0
SMALL
abcg2


@<TRIPOS>ATOM
      1 N1           6.5230     0.4380    18.0170 nc         1 MZF      -0.350300
      2 C4           4.8770     1.8300    17.6200 cc         1 MZF       0.491900
      3 C5           8.0270    -0.8330    20.7440 ca         1 MZF      -0.006000
      4 C6           9.0050    -1.8300    20.7510 ca         1 MZF      -0.137300
      5 C7          10.2490    -1.5940    21.2990 ca         1 MZF      -0.011000
      6 C8          10.4870    -0.3290    21.8380 ca         1 MZF      -0.044900
      7 C10          8.2690     0.4260    21.2620 ca         1 MZF      -0.139000
      8 BR          12.1960     0.0350    22.6260 br         1 MZF      -0.100100
      9 C            8.4510    -3.0540    20.0820 c5         1 MZF       0.152600
     10 O            8.5380    -4.2040    20.9010 oh         1 MZF      -0.629000
     11 C9           9.5260     0.6710    21.8200 ca         1 MZF      -0.044000
     12 N            6.8440    -1.3310    20.1690 n          1 MZF      -0.218400
     13 C1           6.9890    -2.6440    19.7960 c          1 MZF       0.538000
     14 O1           6.1170    -3.3540    19.3340 o          1 MZF      -0.512000
     15 C2           5.6040    -0.6050    20.0580 c3         1 MZF       0.081700
     16 C3           5.5770     0.3490    18.9060 cd         1 MZF       0.525300
     17 N2           4.5210     1.2080    18.6970 nd         1 MZF      -0.717000
     18 O2           6.0560     1.4380    17.1420 os         1 MZF      -0.106700
     19 H1           4.3500     2.6030    17.0810 h5         1 MZF       0.090100
     20 H3           7.5200     1.2060    21.2510 ha         1 MZF       0.129000
     21 H4           8.9390    -3.2240    19.1140 h1         1 MZF       0.077700
     22 H5           8.2620    -4.9700    20.3790 ho         1 MZF       0.462000
     23 H6           9.7430     1.6430    22.2400 ha         1 MZF       0.133000
     24 H7           5.4070    -0.0530    20.9800 h1         1 MZF       0.095200
     25 H8           4.8000    -1.3310    19.9300 h1         1 MZF       0.095200
     26 H2          11.0100    -2.3620    21.3110 ha         1 MZF       0.143000
@<TRIPOS>BOND
     1     1    16 2   
     2     1    18 1   
     3     2    17 2   
     4     2    18 1   
     5     2    19 1   
     6     3     4 ar  
     7     3     7 ar  
     8     3    12 1   
     9     4     5 ar  
    10     4     9 1   
    11     5     6 ar  
    12     5    26 1   
    13     6     8 1   
    14     6    11 ar  
    15     7    11 ar  
    16     7    20 1   
    17     9    10 1   
    18     9    13 1   
    19     9    21 1   
    20    10    22 1   
    21    11    23 1   
    22    12    13 1   
    23    12    15 1   
    24    13    14 2   
    25    15    16 1   
    26    15    24 1   
    27    15    25 1   
    28    16    17 1   
@<TRIPOS>SUBSTRUCTURE
     1 MZF         1 TEMP              0 ****  ****    0 ROOT
