@<TRIPOS>MOLECULE
MZG
   16    16     1     0     0
SMALL
No Charge or Current Charge


@<TRIPOS>ATOM
      1 C4          -0.6610    -1.6810    -0.1030 ca         1 MZG      -0.139000
      2 C5           0.7140    -1.4150     0.0060 ca         1 MZG      -0.067000
      3 C7           0.2390     0.9720     0.0770 ca         1 MZG      -0.062000
      4 C2          -1.1450     0.7140    -0.0330 ca         1 MZG      -0.161300
      5 C3          -1.5880    -0.6250    -0.1230 ca         1 MZG       0.145100
      6 C6           1.1610    -0.0870     0.0960 ca         1 MZG       0.083000
      7 Cl1          2.8820     0.2510     0.2330 cl         1 MZG      -0.206000
      8 O1          -2.9150    -0.9170    -0.2300 oh         1 MZG      -0.535100
      9 H1          -1.0100    -2.7080    -0.1730 ha         1 MZG       0.133000
     10 H2           1.4300    -2.2330     0.0210 ha         1 MZG       0.131000
     11 H3           0.6030     1.9950     0.1470 ha         1 MZG       0.127000
     12 H4          -2.7060     1.9020    -0.9840 hc         1 MZG       0.044700
     13 H5          -2.8320     1.8250     0.7870 hc         1 MZG       0.044700
     14 H6          -1.6120     2.8480     0.0270 hc         1 MZG       0.044700
     15 H7          -3.4150    -0.0730    -0.2290 ho         1 MZG       0.469000
     16 C1          -2.1280     1.8840    -0.0520 c3         1 MZG      -0.051800
@<TRIPOS>BOND
     1     1     2 ar  
     2     1     5 ar  
     3     1     9 1   
     4     2     6 ar  
     5     2    10 1   
     6     3     4 ar  
     7     3     6 ar  
     8     3    11 1   
     9     4     5 ar  
    10     4    16 1   
    11     5     8 1   
    12     6     7 1   
    13     8    15 1   
    14    12    16 1   
    15    13    16 1   
    16    14    16 1   
@<TRIPOS>SUBSTRUCTURE
     1 MZG         1 TEMP              0 ****  ****    0 ROOT
