@<TRIPOS>MOLECULE
MZG
   16    16     1     0     0
SMALL
abcg2


@<TRIPOS>ATOM
      1 C4          -0.6590    -1.6460    -0.1000 ca         1 MZG      -0.139000
      2 C5           0.6990    -1.3980     0.0050 ca         1 MZG      -0.067000
      3 C7           0.2370     0.9650     0.0740 ca         1 MZG      -0.062000
      4 C2          -1.1290     0.7300    -0.0320 ca         1 MZG      -0.161300
      5 C3          -1.5720    -0.5960    -0.1180 ca         1 MZG       0.145100
      6 C6           1.1390    -0.0880     0.0920 ca         1 MZG       0.083000
      7 CL1          2.8390     0.2420     0.2270 cl         1 MZG      -0.206000
      8 O1          -2.8770    -0.9190    -0.2200 oh         1 MZG      -0.535100
      9 H1          -1.0170    -2.6660    -0.1690 ha         1 MZG       0.133000
     10 H2           1.4010    -2.2200     0.0190 ha         1 MZG       0.131000
     11 H3           0.5950     1.9840     0.1440 ha         1 MZG       0.127000
     12 H4          -2.6760     1.9010    -0.9840 hc         1 MZG       0.044700
     13 H5          -2.8250     1.8060     0.7690 hc         1 MZG       0.044700
     14 H6          -1.5940     2.8230     0.0430 hc         1 MZG       0.044700
     15 H7          -3.4350    -0.1340    -0.2310 ho         1 MZG       0.469000
     16 C1          -2.1070     1.8680    -0.0520 c3         1 MZG      -0.051800
@<TRIPOS>BOND
     1     1     2 ar  
     2     1     5 ar  
     3     1     9 1   
     4     2     6 ar  
     5     2    10 1   
     6     3     4 ar  
     7     3     6 ar  
     8     3    11 1   
     9     4     5 ar  
    10     4    16 1   
    11     5     8 1   
    12     6     7 1   
    13     8    15 1   
    14    12    16 1   
    15    13    16 1   
    16    14    16 1   
@<TRIPOS>SUBSTRUCTURE
     1 MZG         1 TEMP              0 ****  ****    0 ROOT
