@<TRIPOS>MOLECULE
MZH
   29    30     1     0     0
SMALL
bcc


@<TRIPOS>ATOM
      1 N1          -2.0310     0.0480     0.3690 n          1 MZH      -0.558900
      2 C1          -3.0490     0.9630     0.1680 c          1 MZH       0.708250
      3 O1          -2.9620     2.1350     0.4360 o          1 MZH      -0.561500
      4 C2          -4.2320     0.2360    -0.4140 c5         1 MZH      -0.169400
      5 N2           2.0490     0.0660    -0.3660 n          1 MZH      -0.558900
      6 C3          -3.7830    -1.2140    -0.5390 c5         1 MZH      -0.169400
      7 C4          -2.3770    -1.2430     0.0030 c          1 MZH       0.708250
      8 O3          -1.6550    -2.2000     0.1150 o          1 MZH      -0.561500
      9 C5          -0.7510     0.4340     0.9180 c3         1 MZH       0.296800
     10 O4           0.0030     1.1710     0.0000 os         1 MZH      -0.393600
     11 C6           2.4090    -1.2190     0.0060 c          1 MZH       0.708250
     12 C7           3.8150    -1.1720     0.5460 c5         1 MZH      -0.169400
     13 C8           4.2510     0.2800     0.4080 c5         1 MZH      -0.169400
     14 C9           3.0580     0.9920    -0.1720 c          1 MZH       0.708250
     15 C10          0.7640     0.4360    -0.9150 c3         1 MZH       0.296800
     16 H2          -5.0870     0.3600     0.2520 hc         1 MZH       0.086450
     17 H3          -4.4020    -1.9060     0.0300 hc         1 MZH       0.086450
     18 H5          -0.9200     1.0760     1.7800 h2         1 MZH       0.079700
     19 H5A         -0.2460    -0.4740     1.2560 h2         1 MZH       0.079700
     20 H7           3.8060    -1.5170     1.5810 hc         1 MZH       0.086450
     21 H8           4.5190     0.7410     1.3580 hc         1 MZH       0.086450
     22 H10          0.9250     1.0750    -1.7800 h2         1 MZH       0.079700
     23 H10A         0.2680    -0.4790    -1.2450 h2         1 MZH       0.079700
     24 H9          -4.4970     0.6880    -1.3700 hc         1 MZH       0.086450
     25 H101        -3.7680    -1.5660    -1.5710 hc         1 MZH       0.086450
     26 H11          4.4410    -1.8640    -0.0180 hc         1 MZH       0.086450
     27 H12          5.1000     0.4060    -0.2640 hc         1 MZH       0.086450
     28 O5           2.9590     2.1620    -0.4470 o          1 MZH      -0.561500
     29 O2           1.6960    -2.1840    -0.1000 o          1 MZH      -0.561500
@<TRIPOS>BOND
     1     1     2 1   
     2     1     7 1   
     3     1     9 1   
     4     2     3 2   
     5     2     4 1   
     6     4     6 1   
     7     4    16 1   
     8     4    24 1   
     9     5    11 1   
    10     5    14 1   
    11     5    15 1   
    12     6     7 1   
    13     6    17 1   
    14     6    25 1   
    15     7     8 2   
    16     9    10 1   
    17     9    18 1   
    18     9    19 1   
    19    10    15 1   
    20    11    12 1   
    21    11    29 2   
    22    12    13 1   
    23    12    20 1   
    24    12    26 1   
    25    13    14 1   
    26    13    21 1   
    27    13    27 1   
    28    14    28 2   
    29    15    22 1   
    30    15    23 1   
@<TRIPOS>SUBSTRUCTURE
     1 MZH         1 TEMP              0 ****  ****    0 ROOT
