@<TRIPOS>MOLECULE
MZH
   29    30     1     0     0
SMALL
No Charge or Current Charge


@<TRIPOS>ATOM
      1 N1          -1.7130     0.2970     0.4430 n          1 MZH      -0.424900
      2 C1          -2.8630     0.8360    -0.1160 c          1 MZH       0.565750
      3 O1          -2.9980     1.9810    -0.5180 o          1 MZH      -0.486000
      4 C2          -3.7810    -0.3820    -0.3000 c5         1 MZH      -0.169400
      5 N2           1.7300     0.3140    -0.4420 n          1 MZH      -0.424900
      6 C3          -2.7640    -1.5590    -0.3990 c5         1 MZH      -0.169400
      7 C4          -1.6340    -1.0830     0.5230 c          1 MZH       0.565750
      8 O3          -0.9560    -1.7070     1.3240 o          1 MZH      -0.486000
      9 C5          -0.6710     1.1540     1.0280 c3         1 MZH       0.320000
     10 O4           0.0000     1.9080    -0.0000 os         1 MZH      -0.440000
     11 C6           1.6640    -1.0680    -0.5200 c          1 MZH       0.565750
     12 C7           2.7990    -1.5310     0.4020 c5         1 MZH      -0.169400
     13 C8           3.8040    -0.3450     0.3020 c5         1 MZH      -0.169400
     14 C9           2.8740     0.8640     0.1160 c          1 MZH       0.565750
     15 C10          0.6790     1.1590    -1.0270 c3         1 MZH       0.320000
     16 H2          -4.3640    -0.4970     0.6200 hc         1 MZH       0.086450
     17 H3          -3.1370    -2.5490    -0.1170 hc         1 MZH       0.086450
     18 H5          -1.1620     1.8260     1.7420 h2         1 MZH       0.079700
     19 H5A          0.0360     0.5280     1.5860 h2         1 MZH       0.079700
     20 H7           2.4030    -1.5620     1.4240 hc         1 MZH       0.086450
     21 H8           4.4860    -0.2100     1.1480 hc         1 MZH       0.086450
     22 H10          1.1630     1.8350    -1.7420 h2         1 MZH       0.079700
     23 H10A        -0.0210     0.5260    -1.5850 h2         1 MZH       0.079700
     24 H9          -4.4640    -0.2550    -1.1470 hc         1 MZH       0.086450
     25 H101        -2.3680    -1.5870    -1.4210 hc         1 MZH       0.086450
     26 H11          3.1810    -2.5180     0.1220 hc         1 MZH       0.086450
     27 H12          4.3880    -0.4550    -0.6180 hc         1 MZH       0.086450
     28 O5           2.9980     2.0110     0.5170 o          1 MZH      -0.486000
     29 O2           0.9930    -1.7000    -1.3210 o          1 MZH      -0.486000
@<TRIPOS>BOND
     1     1     2 1   
     2     1     7 1   
     3     1     9 1   
     4     2     3 2   
     5     2     4 1   
     6     4     6 1   
     7     4    16 1   
     8     4    24 1   
     9     5    11 1   
    10     5    14 1   
    11     5    15 1   
    12     6     7 1   
    13     6    17 1   
    14     6    25 1   
    15     7     8 2   
    16     9    10 1   
    17     9    18 1   
    18     9    19 1   
    19    10    15 1   
    20    11    12 1   
    21    11    29 2   
    22    12    13 1   
    23    12    20 1   
    24    12    26 1   
    25    13    14 1   
    26    13    21 1   
    27    13    27 1   
    28    14    28 2   
    29    15    22 1   
    30    15    23 1   
@<TRIPOS>SUBSTRUCTURE
     1 MZH         1 TEMP              0 ****  ****    0 ROOT
