@<TRIPOS>MOLECULE
MZI
   52    54     1     0     0
SMALL
No Charge or Current Charge


@<TRIPOS>ATOM
      1 C10        -25.6090    26.6780   -21.8120 c          1 MZI       0.607100
      2 C13        -26.8090    25.3310   -19.1980 ca         1 MZI      -0.073000
      3 C15        -27.2370    22.9900   -18.6420 ca         1 MZI      -0.028000
      4 C17        -29.1680    21.9370   -17.3040 c          1 MZI       0.585100
      5 C20        -30.5700    21.1740   -14.6200 c          1 MZI       0.601100
      6 C21        -31.8850    21.1570   -13.8550 c3         1 MZI      -0.155100
      7 C24        -26.0960    22.6300   -19.3860 ca         1 MZI      -0.128000
      8 C28        -24.5070    24.5030   -24.8360 c6         1 MZI       0.189300
      9 C02        -25.4110    23.6520   -29.7830 ca         1 MZI       0.328000
     10 C03        -25.5410    22.7080   -28.7470 ca         1 MZI      -0.075000
     11 C04        -25.5230    23.1790   -27.4170 ca         1 MZI      -0.166000
     12 C05        -25.3740    24.5650   -27.1960 ca         1 MZI       0.552900
     13 C07        -25.5160    26.5850   -25.6770 c6         1 MZI       0.189300
     14 C08        -26.0740    26.9060   -24.2640 c6         1 MZI       0.088500
     15 C11        -24.8370    26.0390   -20.6400 c3         1 MZI      -0.105100
     16 C12        -25.6740    24.9660   -19.9470 ca         1 MZI      -0.087300
     17 C14        -27.5850    24.3550   -18.5500 ca         1 MZI      -0.128000
     18 C18        -29.5320    20.5440   -16.7270 c3         1 MZI       0.074600
     19 C25        -25.3200    23.6060   -20.0330 ca         1 MZI      -0.073000
     20 C27        -25.0480    24.7890   -23.4080 c6         1 MZI       0.088500
     21 N06        -25.3550    25.1190   -25.8920 nh         1 MZI      -0.762300
     22 N09        -25.3660    26.2280   -23.1330 n          1 MZI      -0.421800
     23 N29        -25.2610    25.4230   -28.2450 nb         1 MZI      -0.392000
     24 N30        -25.2780    24.9750   -29.5230 nb         1 MZI      -0.264000
     25 O19        -30.6900    20.5690   -15.8470 os         1 MZI      -0.424100
     26 O22        -29.5350    21.6600   -14.1820 o          1 MZI      -0.476000
     27 O23        -29.8840    22.9250   -17.1570 o          1 MZI      -0.554100
     28 O26        -26.3920    27.5980   -21.6010 o          1 MZI      -0.576100
     29 H1         -27.0900    26.3790   -19.1110 ha         1 MZI       0.113000
     30 H2         -31.8080    21.6410   -12.8740 hc         1 MZI       0.072367
     31 H3         -32.6610    21.6140   -14.4780 hc         1 MZI       0.072367
     32 H4         -32.2310    20.1210   -13.7730 hc         1 MZI       0.072367
     33 H5         -25.8040    21.5840   -19.4630 ha         1 MZI       0.125000
     34 H6         -24.4320    23.4140   -24.9630 h1         1 MZI       0.059450
     35 H7         -23.4840    24.9030   -24.9080 h1         1 MZI       0.059450
     36 H8         -25.6550    21.6510   -28.9730 ha         1 MZI       0.142000
     37 H9         -25.6380    22.4910   -26.5870 ha         1 MZI       0.130000
     38 H10        -24.5460    27.0910   -25.8000 h1         1 MZI       0.059450
     39 H11        -26.2070    27.0180   -26.4160 h1         1 MZI       0.059450
     40 H12        -26.0400    27.9950   -24.1200 h1         1 MZI       0.065700
     41 H13        -27.1330    26.6100   -24.2330 h1         1 MZI       0.065700
     42 H14        -23.9000    25.6010   -20.9970 hc         1 MZI       0.061700
     43 H15        -24.6020    26.8240   -19.9120 hc         1 MZI       0.061700
     44 H16        -28.4430    24.6860   -17.9740 ha         1 MZI       0.125000
     45 H17        -29.7250    19.8880   -17.5860 h1         1 MZI       0.075700
     46 H18        -28.6510    20.1470   -16.2060 h1         1 MZI       0.075700
     47 H19        -24.4390    23.3010   -20.5950 ha         1 MZI       0.113000
     48 H20        -25.9650    24.2000   -23.2590 h1         1 MZI       0.065700
     49 H21        -24.3050    24.4090   -22.6980 h1         1 MZI       0.065700
     50 H22        -27.5080    21.0450   -18.0540 hn         1 MZI       0.149000
     51 N16        -27.9640    21.9480   -18.0010 ns         1 MZI      -0.155000
     52 Cl01       -25.4280    23.1570   -31.4710 cl         1 MZI      -0.152000
@<TRIPOS>BOND
     1     1    15 1   
     2     1    22 1   
     3     1    28 2   
     4     2    16 ar  
     5     2    17 ar  
     6     2    29 1   
     7     3     7 ar  
     8     3    17 ar  
     9     3    51 1   
    10     4    18 1   
    11     4    27 2   
    12     4    51 1   
    13     5     6 1   
    14     5    25 1   
    15     5    26 2   
    16     6    30 1   
    17     6    31 1   
    18     6    32 1   
    19     7    19 ar  
    20     7    33 1   
    21     8    20 1   
    22     8    21 1   
    23     8    34 1   
    24     8    35 1   
    25     9    10 ar  
    26     9    24 ar  
    27     9    52 1   
    28    10    11 ar  
    29    10    36 1   
    30    11    12 ar  
    31    11    37 1   
    32    12    21 1   
    33    12    23 ar  
    34    13    14 1   
    35    13    21 1   
    36    13    38 1   
    37    13    39 1   
    38    14    22 1   
    39    14    40 1   
    40    14    41 1   
    41    15    16 1   
    42    15    42 1   
    43    15    43 1   
    44    16    19 ar  
    45    17    44 1   
    46    18    25 1   
    47    18    45 1   
    48    18    46 1   
    49    19    47 1   
    50    20    22 1   
    51    20    48 1   
    52    20    49 1   
    53    23    24 ar  
    54    50    51 1   
@<TRIPOS>SUBSTRUCTURE
     1 MZI         1 TEMP              0 ****  ****    0 ROOT
