@<TRIPOS>MOLECULE
MZI
   52    54     1     0     0
SMALL
abcg2


@<TRIPOS>ATOM
      1 C10        -27.0710    23.5690   -23.0970 c          1 MZI       0.607100
      2 C13        -26.7240    23.2960   -19.8810 ca         1 MZI      -0.073000
      3 C15        -27.9460    21.8840   -18.3660 ca         1 MZI      -0.028000
      4 C17        -29.1950    22.4390   -16.3220 c          1 MZI       0.585100
      5 C20        -29.7180    23.4710   -13.5370 c          1 MZI       0.601100
      6 C21        -30.5500    24.4510   -12.7700 c3         1 MZI      -0.155100
      7 C24        -28.0630    20.9370   -19.3780 ca         1 MZI      -0.128000
      8 C28        -24.5060    24.2590   -25.3740 c6         1 MZI       0.189300
      9 C02        -23.0810    27.7370   -28.6370 ca         1 MZI       0.328000
     10 C03        -22.4360    26.5410   -28.3110 ca         1 MZI      -0.075000
     11 C04        -23.0940    25.6930   -27.4730 ca         1 MZI      -0.166000
     12 C05        -24.3720    26.0820   -27.0000 ca         1 MZI       0.552900
     13 C07        -26.3660    25.8230   -25.6340 c6         1 MZI       0.189300
     14 C08        -27.3210    24.7060   -25.2510 c6         1 MZI       0.088500
     15 C11        -26.2450    22.6020   -22.2570 c3         1 MZI      -0.105100
     16 C12        -26.8400    22.3590   -20.9030 ca         1 MZI      -0.087300
     17 C14        -27.2610    23.0700   -18.6230 ca         1 MZI      -0.128000
     18 C18        -29.8320    21.7470   -15.1220 c3         1 MZI       0.074600
     19 C25        -27.5110    21.1730   -20.6270 ca         1 MZI      -0.073000
     20 C27        -25.5020    23.1740   -24.9980 c6         1 MZI       0.088500
     21 N06        -25.1320    25.2860   -26.1920 nh         1 MZI      -0.762300
     22 N09        -26.6740    23.7480   -24.3780 n          1 MZI      -0.421800
     23 N29        -24.8940    27.2530   -27.3610 nb         1 MZI      -0.392000
     24 N30        -24.2550    28.0610   -28.1790 nb         1 MZI      -0.264000
     25 O19        -30.4850    22.6770   -14.2920 os         1 MZI      -0.424100
     26 O22        -28.5200    23.3760   -13.4930 o          1 MZI      -0.476000
     27 O23        -29.3380    23.6240   -16.5390 o          1 MZI      -0.554100
     28 O26        -28.0400    24.1450   -22.6280 o          1 MZI      -0.576100
     29 H1         -26.1880    24.2200   -20.0600 ha         1 MZI       0.113000
     30 H2         -29.9180    25.0860   -12.1550 hc         1 MZI       0.072367
     31 H3         -31.1260    25.0750   -13.4540 hc         1 MZI       0.072367
     32 H4         -31.2620    23.9300   -12.1300 hc         1 MZI       0.072367
     33 H5         -28.5880    20.0080   -19.1890 ha         1 MZI       0.125000
     34 H6         -23.6950    23.7760   -25.9120 h1         1 MZI       0.059450
     35 H7         -24.0840    24.6990   -24.4610 h1         1 MZI       0.059450
     36 H8         -21.4590    26.3000   -28.7060 ha         1 MZI       0.142000
     37 H9         -22.6330    24.7550   -27.2020 ha         1 MZI       0.130000
     38 H10        -26.1510    26.4480   -24.7570 h1         1 MZI       0.059450
     39 H11        -26.8500    26.4560   -26.3720 h1         1 MZI       0.059450
     40 H12        -28.1940    25.1280   -24.7620 h1         1 MZI       0.065700
     41 H13        -27.6580    24.1860   -26.1530 h1         1 MZI       0.065700
     42 H14        -26.1390    21.6510   -22.7830 hc         1 MZI       0.061700
     43 H15        -25.2330    23.0070   -22.1560 hc         1 MZI       0.061700
     44 H16        -27.1250    23.8100   -17.8490 ha         1 MZI       0.125000
     45 H17        -30.6050    21.0610   -15.4720 h1         1 MZI       0.075700
     46 H18        -29.0880    21.1580   -14.5790 h1         1 MZI       0.075700
     47 H19        -27.6120    20.4180   -21.3980 ha         1 MZI       0.113000
     48 H20        -25.8080    22.6300   -25.8970 h1         1 MZI       0.065700
     49 H21        -25.0070    22.4640   -24.3430 h1         1 MZI       0.065700
     50 H22        -28.5320    20.6050   -16.8660 hn         1 MZI       0.149000
     51 N16        -28.4940    21.5860   -17.1060 ns         1 MZI      -0.155000
     52 CL01       -22.3120    28.8690   -29.6920 cl         1 MZI      -0.152000
@<TRIPOS>BOND
     1     1    15 1   
     2     1    22 1   
     3     1    28 2   
     4     2    16 ar  
     5     2    17 ar  
     6     2    29 1   
     7     3     7 ar  
     8     3    17 ar  
     9     3    51 1   
    10     4    18 1   
    11     4    27 2   
    12     4    51 1   
    13     5     6 1   
    14     5    25 1   
    15     5    26 2   
    16     6    30 1   
    17     6    31 1   
    18     6    32 1   
    19     7    19 ar  
    20     7    33 1   
    21     8    20 1   
    22     8    21 1   
    23     8    34 1   
    24     8    35 1   
    25     9    10 ar  
    26     9    24 ar  
    27     9    52 1   
    28    10    11 ar  
    29    10    36 1   
    30    11    12 ar  
    31    11    37 1   
    32    12    21 1   
    33    12    23 ar  
    34    13    14 1   
    35    13    21 1   
    36    13    38 1   
    37    13    39 1   
    38    14    22 1   
    39    14    40 1   
    40    14    41 1   
    41    15    16 1   
    42    15    42 1   
    43    15    43 1   
    44    16    19 ar  
    45    17    44 1   
    46    18    25 1   
    47    18    45 1   
    48    18    46 1   
    49    19    47 1   
    50    20    22 1   
    51    20    48 1   
    52    20    49 1   
    53    23    24 ar  
    54    50    51 1   
@<TRIPOS>SUBSTRUCTURE
     1 MZI         1 TEMP              0 ****  ****    0 ROOT
