@<TRIPOS>MOLECULE
MZJ
   59    62     1     0     0
SMALL
No Charge or Current Charge


@<TRIPOS>ATOM
      1 N1           1.4670     4.6510    -0.1990 nb         1 MZJ      -0.289000
      2 N3           3.8560     4.7850     0.0460 nb         1 MZJ      -0.291000
      3 C4           3.9200     3.4490     0.0260 ca         1 MZJ       0.412900
      4 C5           2.7860     2.6260    -0.1050 cp         1 MZJ      -0.320000
      5 C6           1.5590     3.3120    -0.2190 ca         1 MZJ       0.422900
      6 C10         -1.9850     1.8640    -0.4800 c6         1 MZJ      -0.081700
      7 C15         -3.4490     2.3430    -0.5140 c6         1 MZJ      -0.098900
      8 C17          2.1830     0.3830     0.8850 ca         1 MZJ      -0.093000
      9 C20          3.4790    -0.9740    -1.2040 ca         1 MZJ      -0.131500
     10 C21          3.5040     0.4320    -1.1560 ca         1 MZJ      -0.093000
     11 C24          0.3220    -3.2510    -0.5370 ca         1 MZJ      -0.152000
     12 C26         -0.7970    -5.2540     0.2740 ca         1 MZJ      -0.134000
     13 C28          1.6190    -5.0390     0.4890 ca         1 MZJ      -0.152000
     14 O30         -6.3770    -0.7680    -0.3620 o          1 MZJ      -0.604100
     15 C31         -4.9730    -2.4010     0.6130 ce         1 MZJ      -0.295200
     16 C32         -5.9340    -3.2200     1.1100 c2         1 MZJ      -0.238000
     17 N13         -4.2250    -0.0660     0.0130 n          1 MZJ      -0.402800
     18 C12         -2.8180    -0.3980     0.4020 c6         1 MZJ       0.095500
     19 C11         -1.8760     0.8040     0.6400 c6         1 MZJ      -0.098900
     20 C14         -4.4280     1.1790    -0.7950 c6         1 MZJ       0.095500
     21 C9          -0.9970     3.0540    -0.2840 c3         1 MZJ       0.239800
     22 N8           0.3910     2.5900    -0.3890 nu         1 MZJ      -0.932100
     23 N7           5.1660     2.9360     0.1670 nv         1 MZJ      -1.058900
     24 C2           2.6260     5.3230    -0.0670 ca         1 MZJ       0.197900
     25 C16          2.8470     1.1320    -0.1170 cp         1 MZJ      -0.028000
     26 C19          2.7860    -1.6980    -0.2200 ca         1 MZJ       0.104100
     27 C18          2.1520    -1.0190     0.8370 ca         1 MZJ      -0.131500
     28 O22          2.7330    -3.0700    -0.3030 os         1 MZJ      -0.254200
     29 C23          1.5620    -3.7720    -0.1130 ca         1 MZJ       0.128100
     30 C27          0.4400    -5.7800     0.6880 ca         1 MZJ      -0.083500
     31 C25         -0.8570    -3.9920    -0.3410 ca         1 MZJ      -0.083500
     32 H1          -1.7410     1.4020    -1.4480 hc         1 MZJ       0.044700
     33 H2          -3.7100     2.8110     0.4460 hc         1 MZJ       0.054950
     34 H3          -3.5800     3.1180    -1.2810 hc         1 MZJ       0.054950
     35 H4           1.6770     0.9020     1.6970 ha         1 MZJ       0.124500
     36 H5           3.9720    -1.5010    -2.0170 ha         1 MZJ       0.131500
     37 H6           4.0100     0.9860    -1.9430 ha         1 MZJ       0.124500
     38 H7           0.2700    -2.2800    -1.0230 ha         1 MZJ       0.125000
     39 H8          -1.7090    -5.8280     0.4260 ha         1 MZJ       0.117000
     40 H9           2.5760    -5.4450     0.8070 ha         1 MZJ       0.125000
     41 H10         -3.9340    -2.7050     0.6950 ha         1 MZJ       0.179000
     42 H12         -6.9920    -2.9520     1.0870 ha         1 MZJ       0.174500
     43 H13         -5.6900    -4.1860     1.5560 ha         1 MZJ       0.174500
     44 H15         -2.8230    -0.9890     1.3290 h1         1 MZJ       0.056450
     45 H16         -2.3870    -1.0300    -0.3870 h1         1 MZJ       0.056450
     46 H17         -0.8470     0.4300     0.7290 hc         1 MZJ       0.054950
     47 H18         -2.1180     1.2650     1.6080 hc         1 MZJ       0.054950
     48 H19         -5.4510     1.5530    -0.6440 h1         1 MZJ       0.056450
     49 H20         -4.3450     0.9050    -1.8560 h1         1 MZJ       0.056450
     50 H21         -1.1960     3.8150    -1.0520 h1         1 MZJ       0.056700
     51 H22         -1.1750     3.5110     0.7000 h1         1 MZJ       0.056700
     52 H23          0.5380     1.5850    -0.4300 hn         1 MZJ       0.494000
     53 H24          5.9660     3.5510     0.0420 hn         1 MZJ       0.486500
     54 H25          5.3040     1.9440     0.0010 hn         1 MZJ       0.486500
     55 H26          2.5630     6.4100    -0.0500 h5         1 MZJ       0.042100
     56 H27          1.6290    -1.5760     1.6100 ha         1 MZJ       0.131500
     57 H28          0.4850    -6.7600     1.1590 ha         1 MZJ       0.113500
     58 H29         -1.8130    -3.5910    -0.6700 ha         1 MZJ       0.113500
     59 C29         -5.2510    -1.0440     0.0310 c          1 MZJ       0.604300
@<TRIPOS>BOND
     1     1     5 ar  
     2     1    24 ar  
     3     2     3 ar  
     4     2    24 ar  
     5     3     4 ar  
     6     3    23 1   
     7     4     5 ar  
     8     4    25 1   
     9     5    22 1   
    10     6     7 1   
    11     6    19 1   
    12     6    21 1   
    13     6    32 1   
    14     7    20 1   
    15     7    33 1   
    16     7    34 1   
    17     8    25 ar  
    18     8    27 ar  
    19     8    35 1   
    20     9    10 ar  
    21     9    26 ar  
    22     9    36 1   
    23    10    25 ar  
    24    10    37 1   
    25    11    29 ar  
    26    11    31 ar  
    27    11    38 1   
    28    12    30 ar  
    29    12    31 ar  
    30    12    39 1   
    31    13    29 ar  
    32    13    30 ar  
    33    13    40 1   
    34    14    59 2   
    35    15    16 2   
    36    15    41 1   
    37    15    59 1   
    38    16    42 1   
    39    16    43 1   
    40    17    18 1   
    41    17    20 1   
    42    17    59 1   
    43    18    19 1   
    44    18    44 1   
    45    18    45 1   
    46    19    46 1   
    47    19    47 1   
    48    20    48 1   
    49    20    49 1   
    50    21    22 1   
    51    21    50 1   
    52    21    51 1   
    53    22    52 1   
    54    23    53 1   
    55    23    54 1   
    56    24    55 1   
    57    26    27 ar  
    58    26    28 1   
    59    27    56 1   
    60    28    29 1   
    61    30    57 1   
    62    31    58 1   
@<TRIPOS>SUBSTRUCTURE
     1 MZJ         1 TEMP              0 ****  ****    0 ROOT
