@<TRIPOS>MOLECULE
MZJ
   59    62     1     0     0
SMALL
bcc


@<TRIPOS>ATOM
      1 N1           0.9950     4.3430     0.2960 nb         1 MZJ      -0.815000
      2 N3           3.2550     4.7030     0.9260 nb         1 MZJ      -0.817000
      3 C4           3.5300     3.4040     0.7040 ca         1 MZJ       0.741200
      4 C5           2.5510     2.5160     0.2640 cp         1 MZJ      -0.450600
      5 C6           1.2700     3.0520     0.0560 ca         1 MZJ       0.751200
      6 C10         -1.9600     1.4610    -0.8910 c6         1 MZJ      -0.081700
      7 C15         -3.3910     1.8760    -1.2200 c6         1 MZJ      -0.098900
      8 C17          2.4370     0.1770     1.0990 ca         1 MZJ      -0.111000
      9 C20          3.3390    -0.8260    -1.3250 ca         1 MZJ      -0.149500
     10 C21          3.2520     0.5460    -1.1240 ca         1 MZJ      -0.111000
     11 C24          0.6330    -3.2350    -0.7270 ca         1 MZJ      -0.170000
     12 C26         -0.3610    -5.4060    -0.3700 ca         1 MZJ      -0.152000
     13 C28          2.0250    -5.1220    -0.1550 ca         1 MZJ      -0.170000
     14 O30         -6.3120     0.3050     0.3170 o          1 MZJ      -0.604100
     15 C31         -5.2040    -1.3230     1.6160 ce         1 MZJ      -0.245200
     16 C32         -6.0010    -1.2130     2.6730 c2         1 MZJ      -0.138000
     17 N13         -4.2280    -0.2620    -0.3460 n          1 MZJ      -0.469800
     18 C12         -2.8830    -0.7230    -0.0430 c6         1 MZJ       0.095500
     19 C11         -1.9640     0.4560     0.2600 c6         1 MZJ      -0.098900
     20 C14         -4.2630     0.6530    -1.4760 c6         1 MZJ       0.095500
     21 C9          -1.0910     2.6810    -0.6080 c3         1 MZJ       0.239800
     22 N8           0.2730     2.2640    -0.3850 nu         1 MZJ      -0.876900
     23 N7           4.7910     2.9980     0.9720 nv         1 MZJ      -0.948500
     24 C2           2.0090     5.0760     0.7180 ca         1 MZJ       0.723900
     25 C16          2.7830     1.0660     0.0790 cp         1 MZJ      -0.028000
     26 C19          2.9580    -1.6860    -0.3090 ca         1 MZJ       0.104100
     27 C18          2.5240    -1.1920     0.9150 ca         1 MZJ      -0.149500
     28 O22          3.0390    -3.0370    -0.5220 os         1 MZJ      -0.254200
     29 C23          1.8890    -3.7730    -0.4610 ca         1 MZJ       0.128100
     30 C27          0.8990    -5.9320    -0.1160 ca         1 MZJ      -0.101500
     31 C25         -0.4840    -4.0580    -0.6770 ca         1 MZJ      -0.101500
     32 H1          -1.5530     0.9560    -1.7790 hc         1 MZJ       0.044700
     33 H2          -3.8140     2.4560    -0.3930 hc         1 MZJ       0.054950
     34 H3          -3.4080     2.5170    -2.1040 hc         1 MZJ       0.054950
     35 H4           2.0770     0.5640     2.0440 ha         1 MZJ       0.142500
     36 H5           3.6820    -1.2220    -2.2720 ha         1 MZJ       0.149500
     37 H6           3.5220     1.2180    -1.9300 ha         1 MZJ       0.142500
     38 H7           0.5170    -2.1890    -0.9800 ha         1 MZJ       0.143000
     39 H8          -1.2360    -6.0400    -0.3320 ha         1 MZJ       0.135000
     40 H9           3.0060    -5.5310     0.0490 ha         1 MZJ       0.143000
     41 H10         -4.5020    -2.1450     1.5680 ha         1 MZJ       0.129000
     42 H12         -6.7210    -0.4110     2.7720 ha         1 MZJ       0.124500
     43 H13         -5.9510    -1.9270     3.4830 ha         1 MZJ       0.124500
     44 H15         -2.8820    -1.4150     0.7930 h1         1 MZJ       0.056450
     45 H16         -2.5040    -1.2710    -0.9110 h1         1 MZJ       0.056450
     46 H17         -0.9620     0.0680     0.4570 hc         1 MZJ       0.054950
     47 H18         -2.2990     0.9450     1.1810 hc         1 MZJ       0.054950
     48 H19         -5.2900     0.9390    -1.6830 h1         1 MZJ       0.056450
     49 H20         -3.8890     0.1160    -2.3540 h1         1 MZJ       0.056450
     50 H21         -1.1620     3.3800    -1.4480 h1         1 MZJ       0.056700
     51 H22         -1.4650     3.2050     0.2760 h1         1 MZJ       0.056700
     52 H23          0.5310     1.3510    -0.7200 hn         1 MZJ       0.438800
     53 H24          5.4930     3.7090     1.0930 hn         1 MZJ       0.431300
     54 H25          5.1160     2.1180     0.6090 hn         1 MZJ       0.431300
     55 H26          1.7880     6.1220     0.9110 h5         1 MZJ       0.042100
     56 H27          2.2440    -1.8670     1.7140 ha         1 MZJ       0.149500
     57 H28          1.0120    -6.9820     0.1210 ha         1 MZJ       0.131500
     58 H29         -1.4580    -3.6370    -0.8880 ha         1 MZJ       0.131500
     59 C29         -5.2900    -0.3520     0.4880 c          1 MZJ       0.671300
@<TRIPOS>BOND
     1     1     5 ar  
     2     1    24 ar  
     3     2     3 ar  
     4     2    24 ar  
     5     3     4 ar  
     6     3    23 1   
     7     4     5 ar  
     8     4    25 1   
     9     5    22 1   
    10     6     7 1   
    11     6    19 1   
    12     6    21 1   
    13     6    32 1   
    14     7    20 1   
    15     7    33 1   
    16     7    34 1   
    17     8    25 ar  
    18     8    27 ar  
    19     8    35 1   
    20     9    10 ar  
    21     9    26 ar  
    22     9    36 1   
    23    10    25 ar  
    24    10    37 1   
    25    11    29 ar  
    26    11    31 ar  
    27    11    38 1   
    28    12    30 ar  
    29    12    31 ar  
    30    12    39 1   
    31    13    29 ar  
    32    13    30 ar  
    33    13    40 1   
    34    14    59 2   
    35    15    16 2   
    36    15    41 1   
    37    15    59 1   
    38    16    42 1   
    39    16    43 1   
    40    17    18 1   
    41    17    20 1   
    42    17    59 1   
    43    18    19 1   
    44    18    44 1   
    45    18    45 1   
    46    19    46 1   
    47    19    47 1   
    48    20    48 1   
    49    20    49 1   
    50    21    22 1   
    51    21    50 1   
    52    21    51 1   
    53    22    52 1   
    54    23    53 1   
    55    23    54 1   
    56    24    55 1   
    57    26    27 ar  
    58    26    28 1   
    59    27    56 1   
    60    28    29 1   
    61    30    57 1   
    62    31    58 1   
@<TRIPOS>SUBSTRUCTURE
     1 MZJ         1 TEMP              0 ****  ****    0 ROOT
