@<TRIPOS>MOLECULE
MZK
   33    35     1     0     0
SMALL
No Charge or Current Charge


@<TRIPOS>ATOM
      1 C1           2.9620     0.5910    -0.0290 ca         1 MZK      -0.127300
      2 C2           3.8710     1.8200     0.0860 c6         1 MZK      -0.022100
      3 C3           3.5290    -0.6820    -0.2190 ca         1 MZK      -0.003000
      4 C4           5.2810     1.4640     0.6280 c6         1 MZK      -0.161400
      5 C5           1.5620     0.7300     0.0110 ca         1 MZK      -0.058000
      6 C9          -0.7830    -0.2420    -0.0830 cp         1 MZK       0.008000
      7 C10          1.3070    -1.6640    -0.3210 ca         1 MZK      -0.061000
      8 C8           2.7040    -1.8070    -0.3690 ca         1 MZK      -0.158000
      9 C7           5.8580     0.1690     0.0360 c          1 MZK       0.570000
     10 C6           0.7070    -0.3930    -0.1290 cp         1 MZK      -0.074000
     11 O1           7.0550     0.0250    -0.1750 o          1 MZK      -0.537000
     12 N1           4.9320    -0.8090    -0.2630 ns         1 MZK      -0.149000
     13 C12         -1.4220     0.9020    -0.6190 ca         1 MZK      -0.112500
     14 C13         -3.6250     0.0420     0.0020 ca         1 MZK      -0.199300
     15 C14         -3.0000    -1.0990     0.5480 ca         1 MZK      -0.057500
     16 C15         -2.8190     1.0450    -0.5770 ca         1 MZK      -0.057500
     17 C16         -5.1490     0.2010     0.0600 c3         1 MZK       0.357300
     18 C11         -1.6030    -1.2380     0.5020 ca         1 MZK      -0.112500
     19 F1          -5.6310     0.9220    -0.9790 f          1 MZK      -0.114000
     20 F2          -5.7920    -0.9890     0.0330 f          1 MZK      -0.114000
     21 F3          -5.5330     0.8330     1.1910 f          1 MZK      -0.114000
     22 H1           3.9710     2.2780    -0.9080 hc         1 MZK       0.059700
     23 H2           3.4090     2.5810     0.7290 hc         1 MZK       0.059700
     24 H3           6.0040     2.2860     0.5440 hc         1 MZK       0.078200
     25 H4           5.1430     1.2530     1.6960 hc         1 MZK       0.078200
     26 H5           1.1330     1.7180     0.1620 ha         1 MZK       0.118000
     27 H6           0.6840    -2.5460    -0.4490 ha         1 MZK       0.119000
     28 H7           3.1420    -2.7910    -0.5210 ha         1 MZK       0.121000
     29 H8           5.2960    -1.6860    -0.6120 hn         1 MZK       0.160000
     30 H9          -0.8300     1.6850    -1.0860 ha         1 MZK       0.121500
     31 H10         -3.5940    -1.8820     1.0160 ha         1 MZK       0.130000
     32 H11         -3.2720     1.9420    -0.9970 ha         1 MZK       0.130000
     33 H12         -1.1500    -2.1230     0.9410 ha         1 MZK       0.121500
@<TRIPOS>BOND
     1     1     2 1   
     2     1     3 ar  
     3     1     5 ar  
     4     2     4 1   
     5     2    22 1   
     6     2    23 1   
     7     3     8 ar  
     8     3    12 1   
     9     4     9 1   
    10     4    24 1   
    11     4    25 1   
    12     5    10 ar  
    13     5    26 1   
    14     6    10 1   
    15     6    13 ar  
    16     6    18 ar  
    17     7     8 ar  
    18     7    10 ar  
    19     7    27 1   
    20     8    28 1   
    21     9    11 2   
    22     9    12 1   
    23    12    29 1   
    24    13    16 ar  
    25    13    30 1   
    26    14    15 ar  
    27    14    16 ar  
    28    14    17 1   
    29    15    18 ar  
    30    15    31 1   
    31    16    32 1   
    32    17    19 1   
    33    17    20 1   
    34    17    21 1   
    35    18    33 1   
@<TRIPOS>SUBSTRUCTURE
     1 MZK         1 TEMP              0 ****  ****    0 ROOT
