@<TRIPOS>MOLECULE
MZK
   33    35     1     0     0
SMALL
bcc


@<TRIPOS>ATOM
      1 C1           2.9190     0.6220    -0.0840 ca         1 MZK      -0.127300
      2 C2           3.8470     1.7980    -0.0180 c6         1 MZK      -0.022100
      3 C3           3.4840    -0.6440    -0.2520 ca         1 MZK       0.089600
      4 C4           5.1480     1.4150     0.6740 c6         1 MZK      -0.161400
      5 C5           1.5420     0.7370    -0.0180 ca         1 MZK      -0.076000
      6 C9          -0.7630    -0.2270    -0.0760 cp         1 MZK       0.008000
      7 C10          1.2930    -1.6250    -0.3060 ca         1 MZK      -0.079000
      8 C8           2.6680    -1.7640    -0.3640 ca         1 MZK      -0.176000
      9 C7           5.7630     0.1650     0.0980 c          1 MZK       0.712500
     10 C6           0.7030    -0.3740    -0.1300 cp         1 MZK      -0.074000
     11 O1           6.9640    -0.0310     0.0400 o          1 MZK      -0.612500
     12 N1           4.8700    -0.7690    -0.3270 ns         1 MZK      -0.475100
     13 C12         -1.3920     0.8960    -0.6130 ca         1 MZK      -0.130500
     14 C13         -3.5510     0.0420     0.0010 ca         1 MZK      -0.199300
     15 C14         -2.9400    -1.0840     0.5450 ca         1 MZK      -0.075500
     16 C15         -2.7690     1.0350    -0.5750 ca         1 MZK      -0.075500
     17 C16         -5.0360     0.1860     0.0890 c3         1 MZK       0.721200
     18 C11         -1.5640    -1.2120     0.5060 ca         1 MZK      -0.130500
     19 F1          -5.5160     1.0850    -0.7760 f          1 MZK      -0.235300
     20 F2          -5.6700    -0.9690    -0.1530 f          1 MZK      -0.235300
     21 F3          -5.4240     0.5820     1.3130 f          1 MZK      -0.235300
     22 H1           4.0610     2.1450    -1.0340 hc         1 MZK       0.059700
     23 H2           3.3770     2.6320     0.5030 hc         1 MZK       0.059700
     24 H3           5.8800     2.2200     0.6180 hc         1 MZK       0.078200
     25 H4           4.9630     1.2240     1.7370 hc         1 MZK       0.078200
     26 H5           1.1150     1.7220     0.1380 ha         1 MZK       0.136000
     27 H6           0.6750    -2.5080    -0.4170 ha         1 MZK       0.137000
     28 H7           3.1070    -2.7440    -0.5040 ha         1 MZK       0.139000
     29 H8           5.2480    -1.6560    -0.6300 hn         1 MZK       0.326500
     30 H9          -0.8050     1.6700    -1.0910 ha         1 MZK       0.139500
     31 H10         -3.5260    -1.8670     1.0080 ha         1 MZK       0.148000
     32 H11         -3.2170     1.9180    -1.0090 ha         1 MZK       0.148000
     33 H12         -1.1090    -2.0870     0.9530 ha         1 MZK       0.139500
@<TRIPOS>BOND
     1     1     2 1   
     2     1     3 ar  
     3     1     5 ar  
     4     2     4 1   
     5     2    22 1   
     6     2    23 1   
     7     3     8 ar  
     8     3    12 1   
     9     4     9 1   
    10     4    24 1   
    11     4    25 1   
    12     5    10 ar  
    13     5    26 1   
    14     6    10 1   
    15     6    13 ar  
    16     6    18 ar  
    17     7     8 ar  
    18     7    10 ar  
    19     7    27 1   
    20     8    28 1   
    21     9    11 2   
    22     9    12 1   
    23    12    29 1   
    24    13    16 ar  
    25    13    30 1   
    26    14    15 ar  
    27    14    16 ar  
    28    14    17 1   
    29    15    18 ar  
    30    15    31 1   
    31    16    32 1   
    32    17    19 1   
    33    17    20 1   
    34    17    21 1   
    35    18    33 1   
@<TRIPOS>SUBSTRUCTURE
     1 MZK         1 TEMP              0 ****  ****    0 ROOT
