@<TRIPOS>MOLECULE
MZL
   47    50     1     0     0
SMALL
bcc


@<TRIPOS>ATOM
      1 N1           2.0740     0.7300     0.2550 na         1 MZL       0.180300
      2 C2           0.6790     0.5070     0.2300 ca         1 MZL      -0.016200
      3 C3           2.7440     1.8630     0.5950 cc         1 MZL      -0.072600
      4 N4           2.8920    -0.2850    -0.0290 nc         1 MZL      -0.511800
      5 C5          -0.1620     1.3340    -0.4990 ca         1 MZL      -0.091500
      6 C6           0.1460    -0.5660     0.9330 ca         1 MZL      -0.091500
      7 C7           4.0780     1.5450     0.5050 cd         1 MZL      -0.299300
      8 C8           2.1040     3.1480     1.0000 c3         1 MZL      -0.016100
      9 C9           4.1150     0.1920     0.1140 cd         1 MZL       0.375800
     10 C10         -1.5310     1.1130    -0.5200 ca         1 MZL      -0.158000
     11 C11         -1.2140    -0.8020     0.9000 ca         1 MZL      -0.158000
     12 C12          2.1660     4.2150    -0.0920 c3         1 MZL      -0.087100
     13 C13          5.2790    -0.6610    -0.1250 ca         1 MZL      -0.227800
     14 C14         -2.0700     0.0330     0.1790 ca         1 MZL       0.075600
     15 C15          5.1450    -2.0050    -0.4710 ca         1 MZL      -0.070000
     16 C16          6.5750    -0.1600    -0.0160 ca         1 MZL       0.412200
     17 N17         -3.4350    -0.2620     0.2280 ns         1 MZL      -0.469100
     18 C18          6.2810    -2.7640    -0.6820 ca         1 MZL      -0.252300
     19 N19          7.6690    -0.8810    -0.2160 nb         1 MZL      -0.670000
     20 C20         -4.3990     0.1070    -0.6540 c          1 MZL       0.693700
     21 C21          7.5230    -2.1600    -0.5430 ca         1 MZL       0.400200
     22 C22         -5.7710    -0.3770    -0.3260 ca         1 MZL      -0.279900
     23 O23         -4.1910     0.7700    -1.6530 o          1 MZL      -0.570100
     24 C24         -6.6740    -0.5880    -1.3640 ca         1 MZL      -0.037000
     25 C25         -6.2180    -0.5800     0.9770 ca         1 MZL       0.426200
     26 C26         -7.9520    -1.0200    -1.0600 ca         1 MZL      -0.253300
     27 N27         -7.4460    -0.9820     1.2750 nb         1 MZL      -0.667000
     28 C28         -8.2880    -1.2050     0.2730 ca         1 MZL       0.423200
     29 H5           0.2410     2.1570    -1.0740 ha         1 MZL       0.151000
     30 H6           0.7920    -1.2190     1.5040 ha         1 MZL       0.151000
     31 H7           4.9030     2.2080     0.7120 ha         1 MZL       0.164000
     32 H8           1.0690     2.9800     1.3020 hc         1 MZL       0.057700
     33 H8A          2.6240     3.5140     1.8880 hc         1 MZL       0.057700
     34 H10         -2.1560     1.7820    -1.0870 ha         1 MZL       0.151000
     35 H11         -1.6190    -1.6460     1.4460 ha         1 MZL       0.151000
     36 H12          3.1980     4.4440    -0.3580 hc         1 MZL       0.039367
     37 H12A         1.6540     3.8940    -0.9990 hc         1 MZL       0.039367
     38 H12B         1.6950     5.1360     0.2490 hc         1 MZL       0.039367
     39 H15          4.1630    -2.4480    -0.5740 ha         1 MZL       0.152000
     40 H16          6.7370     0.8810     0.2470 h4         1 MZL       0.018100
     41 HN17        -3.6930    -0.9400     0.9300 hn         1 MZL       0.323500
     42 H18          6.2100    -3.8100    -0.9490 ha         1 MZL       0.141000
     43 H21          8.4310    -2.7290    -0.7010 h4         1 MZL       0.017100
     44 H24         -6.3760    -0.4270    -2.3920 ha         1 MZL       0.160000
     45 H25         -5.5690    -0.3840     1.8240 h4         1 MZL       0.020100
     46 H26         -8.6780    -1.2090    -1.8380 ha         1 MZL       0.150000
     47 H28         -9.2820    -1.5440     0.5430 h4         1 MZL       0.025100
@<TRIPOS>BOND
     1     1     2 1   
     2     1     3 1   
     3     1     4 1   
     4     2     5 ar  
     5     2     6 ar  
     6     3     7 2   
     7     3     8 1   
     8     4     9 2   
     9     5    10 ar  
    10     5    29 1   
    11     6    11 ar  
    12     6    30 1   
    13     7     9 1   
    14     7    31 1   
    15     8    12 1   
    16     8    32 1   
    17     8    33 1   
    18     9    13 1   
    19    10    14 ar  
    20    10    34 1   
    21    11    14 ar  
    22    11    35 1   
    23    12    36 1   
    24    12    37 1   
    25    12    38 1   
    26    13    15 ar  
    27    13    16 ar  
    28    14    17 1   
    29    15    18 ar  
    30    15    39 1   
    31    16    19 ar  
    32    16    40 1   
    33    17    20 1   
    34    17    41 1   
    35    18    21 ar  
    36    18    42 1   
    37    19    21 ar  
    38    20    22 1   
    39    20    23 2   
    40    21    43 1   
    41    22    24 ar  
    42    22    25 ar  
    43    24    26 ar  
    44    24    44 1   
    45    25    27 ar  
    46    25    45 1   
    47    26    28 ar  
    48    26    46 1   
    49    27    28 ar  
    50    28    47 1   
@<TRIPOS>SUBSTRUCTURE
     1 MZL         1 TEMP              0 ****  ****    0 ROOT
