@<TRIPOS>MOLECULE
MZL
   47    50     1     0     0
SMALL
No Charge or Current Charge


@<TRIPOS>ATOM
      1 N1           2.1720     0.5660     0.3220 na         1 MZL       0.231000
      2 C2           0.7900     0.3890     0.2460 ca         1 MZL      -0.016200
      3 C3           2.7840     1.6830     0.8780 cc         1 MZL      -0.123300
      4 N4           3.0100    -0.4160    -0.1460 nc         1 MZL      -0.511800
      5 C5           0.1460     0.3800    -1.0050 ca         1 MZL      -0.073500
      6 C6           0.0270     0.2160     1.4150 ca         1 MZL      -0.073500
      7 C7           4.1060     1.3710     0.7400 cd         1 MZL      -0.216000
      8 C8           2.1200     2.9100     1.4530 c3         1 MZL      -0.016100
      9 C9           4.2000     0.0970     0.1170 cd         1 MZL       0.310500
     10 C10         -1.2480     0.2120    -1.0870 ca         1 MZL      -0.140000
     11 C11         -1.3660     0.0480     1.3320 ca         1 MZL      -0.140000
     12 C12          1.4660     3.7990     0.3790 c3         1 MZL      -0.087100
     13 C13          5.4390    -0.6270    -0.2250 ca         1 MZL      -0.162500
     14 C14         -2.0190     0.0490     0.0850 ca         1 MZL      -0.017000
     15 C15          5.4080    -1.8900    -0.8550 ca         1 MZL      -0.052000
     16 C16          6.7010    -0.0700     0.0740 ca         1 MZL       0.346900
     17 N17         -3.4310    -0.1290     0.0840 ns         1 MZL      -0.143000
     18 C18          6.6250    -2.5240    -1.1520 ca         1 MZL      -0.169000
     19 N19          7.8750    -0.6810    -0.2120 nb         1 MZL      -0.670000
     20 C20         -4.3850    -0.0690    -0.9280 c          1 MZL       0.626700
     21 C21          7.8300    -1.8890    -0.8160 ca         1 MZL       0.334900
     22 C22         -5.8090    -0.3490    -0.5170 ca         1 MZL      -0.214600
     23 O23         -4.1150     0.1990    -2.0930 o          1 MZL      -0.570100
     24 C24         -6.8490    -0.3070    -1.4720 ca         1 MZL      -0.019000
     25 C25         -6.1460    -0.6580     0.8160 ca         1 MZL       0.360900
     26 C26         -8.1600    -0.5740    -1.0490 ca         1 MZL      -0.170000
     27 N27         -7.4110    -0.9150     1.2230 nb         1 MZL      -0.667000
     28 C28         -8.3980    -0.8720     0.3000 ca         1 MZL       0.357900
     29 H5           0.7290     0.5050    -1.9150 ha         1 MZL       0.133000
     30 H6           0.5150     0.2110     2.3880 ha         1 MZL       0.133000
     31 H7           4.9330     1.9990     1.0520 ha         1 MZL       0.146000
     32 H8           1.3630     2.6190     2.1900 hc         1 MZL       0.057700
     33 H8A          2.8630     3.5060     1.9970 hc         1 MZL       0.057700
     34 H10         -1.7030     0.2050    -2.0720 ha         1 MZL       0.133000
     35 H11         -1.9390    -0.0820     2.2480 ha         1 MZL       0.133000
     36 H12          2.2090     4.1200    -0.3610 hc         1 MZL       0.039367
     37 H12A         0.6680     3.2590    -0.1430 hc         1 MZL       0.039367
     38 H12B         1.0280     4.6940     0.8380 hc         1 MZL       0.039367
     39 H15          4.4670    -2.3740    -1.1120 ha         1 MZL       0.134000
     40 H16          6.7890     0.9000     0.5600 h4         1 MZL       0.018100
     41 HN17        -3.8090    -0.3420     0.9970 hn         1 MZL       0.157000
     42 H18          6.6400    -3.4960    -1.6370 ha         1 MZL       0.123000
     43 H21          8.7870    -2.3600    -1.0360 h4         1 MZL       0.017100
     44 H24         -6.6500    -0.0740    -2.5170 ha         1 MZL       0.142000
     45 H25         -5.3930    -0.7070     1.6000 h4         1 MZL       0.020100
     46 H26         -8.9870    -0.5510    -1.7540 ha         1 MZL       0.132000
     47 H28         -9.4060    -1.0820     0.6550 h4         1 MZL       0.025100
@<TRIPOS>BOND
     1     1     2 1   
     2     1     3 1   
     3     1     4 1   
     4     2     5 ar  
     5     2     6 ar  
     6     3     7 2   
     7     3     8 1   
     8     4     9 2   
     9     5    10 ar  
    10     5    29 1   
    11     6    11 ar  
    12     6    30 1   
    13     7     9 1   
    14     7    31 1   
    15     8    12 1   
    16     8    32 1   
    17     8    33 1   
    18     9    13 1   
    19    10    14 ar  
    20    10    34 1   
    21    11    14 ar  
    22    11    35 1   
    23    12    36 1   
    24    12    37 1   
    25    12    38 1   
    26    13    15 ar  
    27    13    16 ar  
    28    14    17 1   
    29    15    18 ar  
    30    15    39 1   
    31    16    19 ar  
    32    16    40 1   
    33    17    20 1   
    34    17    41 1   
    35    18    21 ar  
    36    18    42 1   
    37    19    21 ar  
    38    20    22 1   
    39    20    23 2   
    40    21    43 1   
    41    22    24 ar  
    42    22    25 ar  
    43    24    26 ar  
    44    24    44 1   
    45    25    27 ar  
    46    25    45 1   
    47    26    28 ar  
    48    26    46 1   
    49    27    28 ar  
    50    28    47 1   
@<TRIPOS>SUBSTRUCTURE
     1 MZL         1 TEMP              0 ****  ****    0 ROOT
