@<TRIPOS>MOLECULE
MZM
   22    22     1     0     0
SMALL
No Charge or Current Charge


@<TRIPOS>ATOM
      1 N1           2.9880     0.3860    -1.4810 n8         1 MZM      -1.020100
      2 S1           2.4250     0.7090     0.0360 sy         1 MZM       1.133400
      3 O1           3.3430     0.0020     0.9320 o          1 MZM      -0.509000
      4 O2           2.2660     2.1630     0.0580 o          1 MZM      -0.509000
      5 C1           0.7930    -0.0760     0.0700 cc         1 MZM       0.005600
      6 S2          -0.6510     0.9070     0.1010 ss         1 MZM       0.101600
      7 C2          -1.5560    -0.6020     0.1390 cc         1 MZM       0.631100
      8 N2          -0.6900    -1.6860     0.0920 na         1 MZM      -0.394700
      9 C5          -1.0890    -3.1090     0.0770 c3         1 MZM       0.230100
     10 N3           0.6570    -1.3700     0.0640 n2         1 MZM      -0.263400
     11 N4          -2.8500    -0.7080     0.1320 nf         1 MZM      -0.749100
     12 C3          -3.5720     0.4200     0.5420 c          1 MZM       0.702500
     13 O3          -3.5620     0.7930     1.7040 o          1 MZM      -0.591100
     14 C4          -4.3690     1.1080    -0.5570 c3         1 MZM      -0.150100
     15 H1           2.1520     0.1070    -1.9890 hn         1 MZM       0.492500
     16 H2           3.1810     1.3240    -1.8260 hn         1 MZM       0.492500
     17 H3          -1.6810    -3.3380     0.9710 h1         1 MZM       0.066700
     18 H4          -1.6940    -3.3150    -0.8150 h1         1 MZM       0.066700
     19 H5          -0.2030    -3.7560     0.0620 h1         1 MZM       0.066700
     20 H7          -5.0310     0.3720    -1.0260 hc         1 MZM       0.065700
     21 H8          -4.9250     1.9790    -0.1920 hc         1 MZM       0.065700
     22 H9          -3.6940     1.3700    -1.3790 hc         1 MZM       0.065700
@<TRIPOS>BOND
     1     1     2 1   
     2     1    15 1   
     3     1    16 1   
     4     2     3 2   
     5     2     4 2   
     6     2     5 1   
     7     5     6 1   
     8     5    10 2   
     9     6     7 1   
    10     7     8 1   
    11     7    11 2   
    12     8     9 1   
    13     8    10 1   
    14     9    17 1   
    15     9    18 1   
    16     9    19 1   
    17    11    12 1   
    18    12    13 2   
    19    12    14 1   
    20    14    20 1   
    21    14    21 1   
    22    14    22 1   
@<TRIPOS>SUBSTRUCTURE
     1 MZM         1 TEMP              0 ****  ****    0 ROOT
