@<TRIPOS>MOLECULE
MZM
   22    22     1     0     0
SMALL
abcg2


@<TRIPOS>ATOM
      1 N1           3.2010     0.5530    -1.3000 n8         1 MZM      -1.020100
      2 S1           2.6420     0.4390     0.2210 sy         1 MZM       1.133400
      3 O1           3.3820    -0.6140     0.8800 o          1 MZM      -0.509000
      4 O2           2.5640     1.7820     0.7580 o          1 MZM      -0.509000
      5 C1           0.9520    -0.0950     0.1290 cc         1 MZM       0.005600
      6 S2          -0.3700     1.0270     0.1490 ss         1 MZM       0.101600
      7 C2          -1.4260    -0.3620    -0.0130 cc         1 MZM       0.631100
      8 N2          -0.6720    -1.4820    -0.0500 na         1 MZM      -0.394700
      9 C5          -1.2440    -2.8110    -0.1730 c3         1 MZM       0.230100
     10 N3           0.6490    -1.3310     0.0270 n2         1 MZM      -0.263400
     11 N4          -2.7150    -0.3950    -0.0840 nf         1 MZM      -0.749100
     12 C3          -3.3590     0.8130    -0.0230 c          1 MZM       0.702500
     13 O3          -2.7670     1.8780     0.0990 o          1 MZM      -0.591100
     14 C4          -4.8500     0.7200    -0.1310 c3         1 MZM      -0.150100
     15 H1           3.2990    -0.3280    -1.7910 hn         1 MZM       0.492500
     16 H2           2.7740     1.2750    -1.8680 hn         1 MZM       0.492500
     17 H3          -1.9680    -2.9780     0.6200 h1         1 MZM       0.066700
     18 H4          -1.7350    -2.9190    -1.1370 h1         1 MZM       0.066700
     19 H5          -0.4360    -3.5290    -0.0890 h1         1 MZM       0.066700
     20 H7          -5.2360    -0.0200     0.5710 hc         1 MZM       0.065700
     21 H8          -5.3250     1.6790     0.0540 hc         1 MZM       0.065700
     22 H9          -5.1220     0.3770    -1.1310 hc         1 MZM       0.065700
@<TRIPOS>BOND
     1     1     2 1   
     2     1    15 1   
     3     1    16 1   
     4     2     3 2   
     5     2     4 2   
     6     2     5 1   
     7     5     6 1   
     8     5    10 2   
     9     6     7 1   
    10     7     8 1   
    11     7    11 2   
    12     8     9 1   
    13     8    10 1   
    14     9    17 1   
    15     9    18 1   
    16     9    19 1   
    17    11    12 1   
    18    12    13 2   
    19    12    14 1   
    20    14    20 1   
    21    14    21 1   
    22    14    22 1   
@<TRIPOS>SUBSTRUCTURE
     1 MZM         1 TEMP              0 ****  ****    0 ROOT
