@<TRIPOS>MOLECULE
MZN
   48    51     1     0     0
SMALL
abcg2


@<TRIPOS>ATOM
      1 N1          -2.9260     1.4840     0.6540 nb         1 MZN      -0.628000
      2 C4          -0.9750    -0.2480    -0.2540 ca         1 MZN      -0.149600
      3 C5           0.0860    -1.1640    -0.7430 c          1 MZN       0.709100
      4 C8           1.7490     0.2300     0.0910 c2         1 MZN       0.515300
      5 C10          4.1570    -0.6130    -0.0170 c5         1 MZN       0.118000
      6 C13          3.7790     1.7520    -0.1330 c5         1 MZN      -0.091400
      7 C17          9.1240    -0.5430    -0.1760 c3         1 MZN      -0.076100
      8 C20         -1.6480     1.8010     0.7410 ca         1 MZN       0.339900
      9 C21         -4.7110     0.0040     0.0260 cp         1 MZN      -0.232500
     10 C22         -5.5700     0.7730    -0.7680 ca         1 MZN       0.198100
     11 C24         -7.4300    -0.6060    -0.1150 ca         1 MZN      -0.031000
     12 C26         -5.2640    -1.0570     0.7250 ca         1 MZN       0.228000
     13 C16          7.8490     0.2810    -0.1800 c3         1 MZN      -0.152400
     14 O15          6.6260    -1.7850    -0.3020 o          1 MZN      -0.596100
     15 N11          5.4280     0.0940    -0.0600 n          1 MZN      -0.429800
     16 C12          5.2730     1.5390     0.0640 c5         1 MZN       0.107000
     17 C9           3.1820     0.4620     0.4450 c5         1 MZN      -0.143000
     18 C18          0.8130     1.3520     0.4010 c6         1 MZN      -0.138400
     19 N7           1.4150    -0.8890    -0.4310 ne         1 MZN      -0.647100
     20 O6          -0.1820    -2.1530    -1.3850 o          1 MZN      -0.478100
     21 C3          -2.3200    -0.5850    -0.3560 ca         1 MZN      -0.076000
     22 C19         -0.6200     0.9680     0.3030 ca         1 MZN      -0.107300
     23 C2          -3.2650     0.3120     0.1140 cp         1 MZN       0.414500
     24 F27         -4.4460    -1.7930     1.4930 f          1 MZN      -0.171000
     25 C25         -6.6040    -1.3850     0.6820 ca         1 MZN      -0.193000
     26 C23         -6.9270     0.4650    -0.8370 ca         1 MZN      -0.231000
     27 O28         -5.0220     1.7840    -1.4570 oh         1 MZN      -0.514100
     28 H1           3.8850    -0.9970    -1.0040 h1         1 MZN       0.076700
     29 H2           4.1960    -1.4600     0.6680 h1         1 MZN       0.076700
     30 H3           3.4270     2.6550     0.3640 hc         1 MZN       0.057700
     31 H4           3.5430     1.8330    -1.1960 hc         1 MZN       0.057700
     32 H5           9.1950    -1.1810    -1.0550 hc         1 MZN       0.042367
     33 H6           9.9930     0.1160    -0.1730 hc         1 MZN       0.042367
     34 H7           9.1880    -1.1790     0.7070 hc         1 MZN       0.042367
     35 H8          -1.4120     2.7630     1.1840 h4         1 MZN       0.022100
     36 H9          -8.4840    -0.8370    -0.1750 ha         1 MZN       0.119000
     37 H10          7.8290     0.9520     0.6840 hc         1 MZN       0.052700
     38 H11          7.8310     0.9380    -1.0560 hc         1 MZN       0.052700
     39 H12          5.8590     2.0750    -0.6820 h1         1 MZN       0.046200
     40 H13          5.5880     1.8850     1.0530 h1         1 MZN       0.046200
     41 H14          3.2180     0.5360     1.5400 hc         1 MZN       0.074700
     42 H15          1.0520     1.7560     1.3880 hc         1 MZN       0.082200
     43 H16          1.0290     2.1680    -0.3010 hc         1 MZN       0.082200
     44 H17         -2.6230    -1.5220    -0.8020 ha         1 MZN       0.151000
     45 H18         -6.9870    -2.2210     1.2510 ha         1 MZN       0.139000
     46 H19         -7.5850     1.0560    -1.4620 ha         1 MZN       0.121000
     47 H20         -5.6910     2.2340    -1.9860 ho         1 MZN       0.469000
     48 C14          6.5930    -0.5650    -0.1870 c          1 MZN       0.604100
@<TRIPOS>BOND
     1     1     8 ar  
     2     1    23 ar  
     3     2     3 1   
     4     2    21 ar  
     5     2    22 ar  
     6     3    19 1   
     7     3    20 2   
     8     4    17 1   
     9     4    18 1   
    10     4    19 2   
    11     5    15 1   
    12     5    17 1   
    13     5    28 1   
    14     5    29 1   
    15     6    16 1   
    16     6    17 1   
    17     6    30 1   
    18     6    31 1   
    19     7    13 1   
    20     7    32 1   
    21     7    33 1   
    22     7    34 1   
    23     8    22 ar  
    24     8    35 1   
    25     9    10 ar  
    26     9    12 ar  
    27     9    23 1   
    28    10    26 ar  
    29    10    27 1   
    30    11    25 ar  
    31    11    26 ar  
    32    11    36 1   
    33    12    24 1   
    34    12    25 ar  
    35    13    37 1   
    36    13    38 1   
    37    13    48 1   
    38    14    48 2   
    39    15    16 1   
    40    15    48 1   
    41    16    39 1   
    42    16    40 1   
    43    17    41 1   
    44    18    22 1   
    45    18    42 1   
    46    18    43 1   
    47    21    23 ar  
    48    21    44 1   
    49    25    45 1   
    50    26    46 1   
    51    27    47 1   
@<TRIPOS>SUBSTRUCTURE
     1 MZN         1 TEMP              0 ****  ****    0 ROOT
