@<TRIPOS>MOLECULE
MZN
   48    51     1     0     0
SMALL
No Charge or Current Charge


@<TRIPOS>ATOM
      1 N1          -3.0080     1.5380     0.6440 nb         1 MZN      -0.628000
      2 C4          -0.9920    -0.2550    -0.2330 ca         1 MZN      -0.149600
      3 C5           0.0820    -1.2080    -0.6980 c          1 MZN       0.709100
      4 C8           1.7630     0.2440     0.1270 c2         1 MZN       0.515300
      5 C10          4.1860    -0.6310    -0.0500 c5         1 MZN       0.118000
      6 C13          3.8170     1.7330    -0.2230 c5         1 MZN      -0.091400
      7 C17          9.3320    -0.5550    -0.1480 c3         1 MZN      -0.076100
      8 C20         -1.6980     1.8500     0.7550 ca         1 MZN       0.339900
      9 C21         -4.7950     0.0340     0.0050 cp         1 MZN      -0.232500
     10 C22         -5.6930     0.8120    -0.7660 ca         1 MZN       0.198100
     11 C24         -7.5520    -0.6290    -0.1240 ca         1 MZN      -0.031000
     12 C26         -5.3110    -1.0870     0.6960 ca         1 MZN       0.228000
     13 C16          8.0090     0.2450    -0.1390 c3         1 MZN      -0.152400
     14 O15          6.7430    -1.8120    -0.2870 o          1 MZN      -0.596100
     15 N11          5.4820     0.0790    -0.0500 n          1 MZN      -0.429800
     16 C12          5.3400     1.5510     0.0100 c5         1 MZN       0.107000
     17 C9           3.2370     0.4800     0.4950 c5         1 MZN      -0.143000
     18 C18          0.7970     1.3750     0.4550 c6         1 MZN      -0.138400
     19 N7           1.4060    -0.9060    -0.3680 ne         1 MZN      -0.647100
     20 O6          -0.2050    -2.2130    -1.3300 o          1 MZN      -0.478100
     21 C3          -2.3630    -0.5690    -0.3520 ca         1 MZN      -0.076000
     22 C19         -0.6660     0.9870     0.3300 ca         1 MZN      -0.107300
     23 C2          -3.3440     0.3510     0.0900 cp         1 MZN       0.414500
     24 F27         -4.4930    -1.8600     1.4450 f          1 MZN      -0.171000
     25 C25         -6.6730    -1.4140     0.6360 ca         1 MZN      -0.193000
     26 C23         -7.0570     0.4810    -0.8260 ca         1 MZN      -0.231000
     27 O28         -5.2510     1.8750    -1.4950 oh         1 MZN      -0.514100
     28 H1           3.9280    -0.9420    -1.0720 h1         1 MZN       0.076700
     29 H2           4.1920    -1.5210     0.5940 h1         1 MZN       0.076700
     30 H3           3.4500     2.6800     0.1910 hc         1 MZN       0.057700
     31 H4           3.5820     1.7290    -1.2950 hc         1 MZN       0.057700
     32 H5           9.4090    -1.1680    -1.0550 hc         1 MZN       0.042367
     33 H6          10.1910     0.1260    -0.1220 hc         1 MZN       0.042367
     34 H7           9.3920    -1.2170     0.7240 hc         1 MZN       0.042367
     35 H8          -1.4670     2.8190     1.1960 h4         1 MZN       0.022100
     36 H9          -8.6090    -0.8820    -0.1730 ha         1 MZN       0.119000
     37 H10          7.9580     0.9240     0.7200 hc         1 MZN       0.052700
     38 H11          7.9700     0.9540    -0.9740 hc         1 MZN       0.052700
     39 H12          5.9290     2.0670    -0.7590 h1         1 MZN       0.046200
     40 H13          5.6430     1.9270     0.9970 h1         1 MZN       0.046200
     41 H14          3.3400     0.5710     1.5830 hc         1 MZN       0.074700
     42 H15          0.9940     1.7240     1.4770 hc         1 MZN       0.082200
     43 H16          1.0020     2.2250    -0.2090 hc         1 MZN       0.082200
     44 H17         -2.6830    -1.5150    -0.7810 ha         1 MZN       0.151000
     45 H18         -7.0460    -2.2780     1.1810 ha         1 MZN       0.139000
     46 H19         -7.7420     1.0790    -1.4220 ha         1 MZN       0.121000
     47 H20         -6.0220     2.2800    -1.9430 ho         1 MZN       0.469000
     48 C14          6.7140    -0.5930    -0.1700 c          1 MZN       0.604100
@<TRIPOS>BOND
     1     1     8 ar  
     2     1    23 ar  
     3     2     3 1   
     4     2    21 ar  
     5     2    22 ar  
     6     3    19 1   
     7     3    20 2   
     8     4    17 1   
     9     4    18 1   
    10     4    19 2   
    11     5    15 1   
    12     5    17 1   
    13     5    28 1   
    14     5    29 1   
    15     6    16 1   
    16     6    17 1   
    17     6    30 1   
    18     6    31 1   
    19     7    13 1   
    20     7    32 1   
    21     7    33 1   
    22     7    34 1   
    23     8    22 ar  
    24     8    35 1   
    25     9    10 ar  
    26     9    12 ar  
    27     9    23 1   
    28    10    26 ar  
    29    10    27 1   
    30    11    25 ar  
    31    11    26 ar  
    32    11    36 1   
    33    12    24 1   
    34    12    25 ar  
    35    13    37 1   
    36    13    38 1   
    37    13    48 1   
    38    14    48 2   
    39    15    16 1   
    40    15    48 1   
    41    16    39 1   
    42    16    40 1   
    43    17    41 1   
    44    18    22 1   
    45    18    42 1   
    46    18    43 1   
    47    21    23 ar  
    48    21    44 1   
    49    25    45 1   
    50    26    46 1   
    51    27    47 1   
@<TRIPOS>SUBSTRUCTURE
     1 MZN         1 TEMP              0 ****  ****    0 ROOT
