@<TRIPOS>MOLECULE
MZO
   29    31     1     0     0
SMALL
abcg2


@<TRIPOS>ATOM
      1 CAA          5.2960     1.5340     0.0520 c3         1 MZO       0.148900
      2 OAM          3.8840     1.4890     0.0380 os         1 MZO      -0.339100
      3 CAP          3.2790     0.2860     0.0020 ca         1 MZO       0.165100
      4 CAG          1.8820     0.3240     0.0100 ca         1 MZO      -0.170000
      5 CAF          3.9580    -0.9270    -0.0380 ca         1 MZO      -0.226000
      6 CAC          3.2150    -2.1030    -0.0720 ca         1 MZO      -0.046000
      7 CAE          1.8360    -2.0870    -0.0660 ca         1 MZO      -0.202000
      8 CAO          1.1570    -0.8610    -0.0240 ca         1 MZO       0.337000
      9 N6          -0.2340    -0.9310    -0.0160 nu         1 MZO      -0.916900
     10 C6          -1.1810     0.0340    -0.0090 ca         1 MZO       0.447900
     11 C5          -2.5390    -0.3320    -0.0190 ca         1 MZO      -0.095600
     12 N7          -3.1710    -1.5450    -0.0370 nc         1 MZO      -0.555100
     13 C8          -4.4390    -1.2430    -0.0400 cd         1 MZO       0.404700
     14 N9          -4.6720     0.0970    -0.0250 na         1 MZO      -0.409300
     15 C4          -3.4580     0.7090    -0.0110 ca         1 MZO       0.120500
     16 N3          -3.1700     2.0100     0.0040 nb         1 MZO      -0.208000
     17 C2          -1.8690     2.2260     0.0120 ca         1 MZO       0.180900
     18 N1          -0.8810     1.3290     0.0070 nb         1 MZO      -0.276000
     19 HAA          5.7140     1.0270     0.9260 h1         1 MZO       0.040033
     20 HAAA         5.7290     1.0940    -0.8500 h1         1 MZO       0.040033
     21 HAAB         5.5710     2.5850     0.0930 h1         1 MZO       0.040033
     22 HAG          1.3770     1.2760     0.0430 ha         1 MZO       0.165000
     23 HAF          5.0370    -0.9810    -0.0450 ha         1 MZO       0.119000
     24 HAC          3.7340    -3.0530    -0.1060 ha         1 MZO       0.111000
     25 HAE          1.2800    -3.0170    -0.0930 ha         1 MZO       0.115000
     26 HN6         -0.6060    -1.8700    -0.0280 hn         1 MZO       0.518000
     27 H8          -5.2510    -1.9540    -0.0530 h5         1 MZO       0.068800
     28 HN9         -5.5760     0.5440    -0.0260 hn         1 MZO       0.372000
     29 H2          -1.5530     3.2630     0.0240 h5         1 MZO       0.051100
@<TRIPOS>BOND
     1     1     2 1   
     2     1    19 1   
     3     1    20 1   
     4     1    21 1   
     5     2     3 1   
     6     3     4 ar  
     7     3     5 ar  
     8     4     8 ar  
     9     4    22 1   
    10     5     6 ar  
    11     5    23 1   
    12     6     7 ar  
    13     6    24 1   
    14     7     8 ar  
    15     7    25 1   
    16     8     9 1   
    17     9    10 1   
    18     9    26 1   
    19    10    11 ar  
    20    10    18 ar  
    21    11    12 1   
    22    11    15 ar  
    23    12    13 2   
    24    13    14 1   
    25    13    27 1   
    26    14    15 1   
    27    14    28 1   
    28    15    16 ar  
    29    16    17 ar  
    30    17    18 ar  
    31    17    29 1   
@<TRIPOS>SUBSTRUCTURE
     1 MZO         1 TEMP              0 ****  ****    0 ROOT
