@<TRIPOS>MOLECULE
MZO
   29    31     1     0     0
SMALL
No Charge or Current Charge


@<TRIPOS>ATOM
      1 CAA          5.4440     1.5100     0.3750 c3         1 MZO       0.148900
      2 OAM          4.0070     1.4420     0.4060 os         1 MZO      -0.339100
      3 CAP          3.3190     0.2770     0.1380 ca         1 MZO       0.165100
      4 CAG          1.9180     0.3160     0.1970 ca         1 MZO      -0.170000
      5 CAF          3.9710    -0.9330    -0.1810 ca         1 MZO      -0.226000
      6 CAC          3.2170    -2.0900    -0.4300 ca         1 MZO      -0.046000
      7 CAE          1.8150    -2.0380    -0.3670 ca         1 MZO      -0.202000
      8 CAO          1.1570    -0.8350    -0.0660 ca         1 MZO       0.337000
      9 N6          -0.2370    -0.8500    -0.0070 nu         1 MZO      -0.916900
     10 C6          -1.2480     0.1010    -0.1180 ca         1 MZO       0.447900
     11 C5          -2.5960    -0.2790     0.0690 ca         1 MZO      -0.095600
     12 N7          -3.1210    -1.5290     0.3850 nc         1 MZO      -0.555100
     13 C8          -4.4430    -1.2790     0.4290 cd         1 MZO       0.404700
     14 N9          -4.7650     0.0580     0.1560 na         1 MZO      -0.409300
     15 C4          -3.5690     0.6750    -0.0740 ca         1 MZO       0.120500
     16 N3          -3.2840     1.9520    -0.3900 nb         1 MZO      -0.208000
     17 C2          -1.9710     2.2340    -0.5630 ca         1 MZO       0.180900
     18 N1          -0.9360     1.3700    -0.4470 nb         1 MZO      -0.276000
     19 HAA          5.8830     0.8220     1.1080 h1         1 MZO       0.040033
     20 HAAA         5.8250     1.2530    -0.6220 h1         1 MZO       0.040033
     21 HAAB         5.7820     2.5250     0.6170 h1         1 MZO       0.040033
     22 HAG          1.4380     1.2480     0.4680 ha         1 MZO       0.165000
     23 HAF          5.0540    -0.9950    -0.2350 ha         1 MZO       0.119000
     24 HAC          3.7170    -3.0260    -0.6720 ha         1 MZO       0.111000
     25 HAE          1.2400    -2.9390    -0.5620 ha         1 MZO       0.115000
     26 HN6         -0.6370    -1.7840     0.0790 hn         1 MZO       0.518000
     27 H8          -5.2160    -2.0070     0.6490 h5         1 MZO       0.068800
     28 HN9         -5.6910     0.4650     0.1340 hn         1 MZO       0.372000
     29 H2          -1.7230     3.2620    -0.8240 h5         1 MZO       0.051100
@<TRIPOS>BOND
     1     1     2 1   
     2     1    19 1   
     3     1    20 1   
     4     1    21 1   
     5     2     3 1   
     6     3     4 ar  
     7     3     5 ar  
     8     4     8 ar  
     9     4    22 1   
    10     5     6 ar  
    11     5    23 1   
    12     6     7 ar  
    13     6    24 1   
    14     7     8 ar  
    15     7    25 1   
    16     8     9 1   
    17     9    10 1   
    18     9    26 1   
    19    10    11 ar  
    20    10    18 ar  
    21    11    12 1   
    22    11    15 ar  
    23    12    13 2   
    24    13    14 1   
    25    13    27 1   
    26    14    15 1   
    27    14    28 1   
    28    15    16 ar  
    29    16    17 ar  
    30    17    18 ar  
    31    17    29 1   
@<TRIPOS>SUBSTRUCTURE
     1 MZO         1 TEMP              0 ****  ****    0 ROOT
