@<TRIPOS>MOLECULE
MZQ
   48    51     1     0     0
SMALL
abcg2


@<TRIPOS>ATOM
      1 C4          -0.7650     0.2010    -0.0010 ca         1 MZQ      -0.185600
      2 C5           0.2710     1.2350    -0.1970 c          1 MZQ       0.709100
      3 C7           1.9740    -0.3490    -0.0910 c2         1 MZQ       0.511300
      4 C8           1.0560    -1.4810     0.2280 c6         1 MZQ      -0.146400
      5 C10          4.0060    -1.3800     1.0380 c5         1 MZQ      -0.091400
      6 N12          5.6380    -0.0150     0.0630 n          1 MZQ      -0.428800
      7 C13          6.7830     0.6530    -0.1570 c          1 MZQ       0.604100
      8 C15          8.0400     0.0310     0.4160 c3         1 MZQ      -0.153400
      9 C17          4.3640     0.4770    -0.4390 c5         1 MZQ       0.117000
     10 C20         -3.1000    -0.4000     0.1630 cp         1 MZQ      -0.043000
     11 C21         -4.5210     0.0020     0.1670 cp         1 MZQ      -0.099000
     12 C22         -5.4720    -0.6300    -0.6250 ca         1 MZQ       0.211000
     13 C24         -6.8010    -0.2560    -0.6570 ca         1 MZQ      -0.201000
     14 C26         -6.2890     1.4780     0.9500 ca         1 MZQ      -0.169000
     15 C16          9.3110     0.7450    -0.0080 c3         1 MZQ      -0.076100
     16 O14          6.8010     1.7080    -0.7800 o          1 MZQ      -0.596100
     17 C11          5.5070    -1.2540     0.8190 c5         1 MZQ       0.107000
     18 C9           3.4230    -0.7000    -0.2100 c5         1 MZQ      -0.141000
     19 N6           1.6150     0.8630    -0.2790 ne         1 MZQ      -0.646100
     20 O18         -0.0100     2.4100    -0.3030 o          1 MZQ      -0.489100
     21 C19         -2.1140     0.5560    -0.0190 ca         1 MZQ      -0.032000
     22 C3          -0.3900    -1.1220     0.1990 ca         1 MZQ      -0.038300
     23 C2          -1.3780    -2.0840     0.3860 ca         1 MZQ      -0.121000
     24 C1          -2.7130    -1.7300     0.3660 ca         1 MZQ      -0.056000
     25 C27         -4.9650     1.0670     0.9510 ca         1 MZQ      -0.047000
     26 C25         -7.1830     0.8030     0.1430 ca         1 MZQ       0.206000
     27 F28         -8.4650     1.1850     0.1270 f          1 MZQ      -0.169000
     28 F23         -5.0880    -1.6380    -1.4170 f          1 MZQ      -0.169000
     29 H1           1.2660    -2.3040    -0.4620 hc         1 MZQ       0.081700
     30 H2           1.3230    -1.8690     1.2180 hc         1 MZQ       0.081700
     31 H3           3.7000    -2.4180     1.1530 hc         1 MZQ       0.057700
     32 H4           3.7040    -0.8350     1.9360 hc         1 MZQ       0.057700
     33 H5           7.9570     0.0290     1.5080 hc         1 MZQ       0.052700
     34 H6           8.0870    -1.0240     0.1290 hc         1 MZQ       0.052700
     35 H7           4.0360     1.3590     0.1160 h1         1 MZQ       0.076700
     36 H8           4.4310     0.7540    -1.4910 h1         1 MZQ       0.076700
     37 H9          -7.5080    -0.7680    -1.2960 ha         1 MZQ       0.152000
     38 H10         -6.6150     2.3040     1.5680 ha         1 MZQ       0.141000
     39 H11         10.1760     0.2630     0.4440 hc         1 MZQ       0.042367
     40 H12          9.4440     0.7200    -1.0890 hc         1 MZQ       0.042367
     41 H13          9.3120     1.7890     0.3040 hc         1 MZQ       0.042367
     42 H14          6.0540    -1.2110     1.7610 h1         1 MZQ       0.045700
     43 H15          5.8910    -2.1060     0.2490 h1         1 MZQ       0.045700
     44 H16          3.5100    -1.4020    -1.0500 hc         1 MZQ       0.073700
     45 H17         -2.3890     1.5880    -0.1920 ha         1 MZQ       0.141000
     46 H18         -1.0990    -3.1170     0.5530 ha         1 MZQ       0.119000
     47 H19         -3.4610    -2.4940     0.5330 ha         1 MZQ       0.125000
     48 H20         -4.2580     1.5800     1.5890 ha         1 MZQ       0.128000
@<TRIPOS>BOND
     1     1     2 1   
     2     1    21 ar  
     3     1    22 ar  
     4     2    19 1   
     5     2    20 2   
     6     3     4 1   
     7     3    18 1   
     8     3    19 2   
     9     4    22 1   
    10     4    29 1   
    11     4    30 1   
    12     5    17 1   
    13     5    18 1   
    14     5    31 1   
    15     5    32 1   
    16     6     7 1   
    17     6     9 1   
    18     6    17 1   
    19     7     8 1   
    20     7    16 2   
    21     8    15 1   
    22     8    33 1   
    23     8    34 1   
    24     9    18 1   
    25     9    35 1   
    26     9    36 1   
    27    10    11 1   
    28    10    21 ar  
    29    10    24 ar  
    30    11    12 ar  
    31    11    25 ar  
    32    12    13 ar  
    33    12    28 1   
    34    13    26 ar  
    35    13    37 1   
    36    14    25 ar  
    37    14    26 ar  
    38    14    38 1   
    39    15    39 1   
    40    15    40 1   
    41    15    41 1   
    42    17    42 1   
    43    17    43 1   
    44    18    44 1   
    45    21    45 1   
    46    22    23 ar  
    47    23    24 ar  
    48    23    46 1   
    49    24    47 1   
    50    25    48 1   
    51    26    27 1   
@<TRIPOS>SUBSTRUCTURE
     1 MZQ         1 TEMP              0 ****  ****    0 ROOT
