@<TRIPOS>MOLECULE
MZQ
   48    51     1     0     0
SMALL
No Charge or Current Charge


@<TRIPOS>ATOM
      1 C4          -0.7960     0.2730     0.1890 ca         1 MZQ      -0.185600
      2 C5           0.2600     1.3490     0.1100 c          1 MZQ       0.709100
      3 C7           1.9720    -0.2820     0.1190 c2         1 MZQ       0.511300
      4 C8           1.0380    -1.4210     0.4910 c6         1 MZQ      -0.146400
      5 C10          4.0700    -1.3600     1.1160 c5         1 MZQ      -0.091400
      6 N12          5.6860     0.0020     0.0830 n          1 MZQ      -0.428800
      7 C13          6.9020     0.6600    -0.1900 c          1 MZQ       0.604100
      8 C15          8.2180    -0.0590     0.1740 c3         1 MZQ      -0.153400
      9 C17          4.3720     0.5930    -0.2430 c5         1 MZQ       0.117000
     10 C20         -3.1750    -0.3870     0.1660 cp         1 MZQ      -0.043000
     11 C21         -4.6210    -0.0130     0.0730 cp         1 MZQ      -0.099000
     12 C22         -5.5400    -0.7370    -0.7370 ca         1 MZQ       0.211000
     13 C24         -6.8910    -0.3670    -0.8090 ca         1 MZQ      -0.201000
     14 C26         -6.4700     1.4660     0.7280 ca         1 MZQ      -0.169000
     15 C16          9.5190     0.6550    -0.2600 c3         1 MZQ      -0.076100
     16 O14          6.9000     1.7690    -0.7090 o          1 MZQ      -0.596100
     17 C11          5.5830    -1.3000     0.7800 c5         1 MZQ       0.107000
     18 C9           3.4440    -0.6530    -0.1220 c5         1 MZQ      -0.141000
     19 N6           1.5850     0.9460    -0.0680 ne         1 MZQ      -0.646100
     20 O18         -0.0410     2.5300     0.1870 o          1 MZQ      -0.489100
     21 C19         -2.1670     0.6060     0.0980 ca         1 MZQ      -0.032000
     22 C3          -0.4300    -1.0690     0.3650 ca         1 MZQ      -0.038300
     23 C2          -1.4130    -2.0700     0.4450 ca         1 MZQ      -0.121000
     24 C1          -2.7720    -1.7320     0.3460 ca         1 MZQ      -0.056000
     25 C27         -5.1150     1.0990     0.8010 ca         1 MZQ      -0.047000
     26 C25         -7.3520     0.7310    -0.0750 ca         1 MZQ       0.206000
     27 F28         -8.6540     1.0860    -0.1440 f          1 MZQ      -0.169000
     28 F23         -5.1230    -1.7850    -1.4830 f          1 MZQ      -0.169000
     29 H1           1.2600    -2.2850    -0.1490 hc         1 MZQ       0.081700
     30 H2           1.2470    -1.7350     1.5220 hc         1 MZQ       0.081700
     31 H3           3.7200    -2.3900     1.2510 hc         1 MZQ       0.057700
     32 H4           3.8540    -0.8140     2.0430 hc         1 MZQ       0.057700
     33 H5           8.2110    -0.2450     1.2530 hc         1 MZQ       0.052700
     34 H6           8.1710    -1.0810    -0.2200 hc         1 MZQ       0.052700
     35 H7           4.1220     1.3780     0.4850 h1         1 MZQ       0.076700
     36 H8           4.3440     1.0320    -1.2500 h1         1 MZQ       0.076700
     37 H9          -7.5760    -0.9290    -1.4360 ha         1 MZQ       0.152000
     38 H10         -6.8380     2.3180     1.2950 ha         1 MZQ       0.141000
     39 H11         10.3950     0.0680     0.0390 hc         1 MZQ       0.042367
     40 H12          9.5470     0.7820    -1.3490 hc         1 MZQ       0.042367
     41 H13          9.5940     1.6440     0.2070 hc         1 MZQ       0.042367
     42 H14          6.1990    -1.3460     1.6870 h1         1 MZQ       0.045700
     43 H15          5.8780    -2.1190     0.1110 h1         1 MZQ       0.045700
     44 H16          3.5290    -1.2840    -1.0150 hc         1 MZQ       0.073700
     45 H17         -2.4600     1.6440    -0.0440 ha         1 MZQ       0.141000
     46 H18         -1.1250    -3.1090     0.5900 ha         1 MZQ       0.119000
     47 H19         -3.5200    -2.5180     0.4240 ha         1 MZQ       0.125000
     48 H20         -4.4440     1.6730     1.4360 ha         1 MZQ       0.128000
@<TRIPOS>BOND
     1     1     2 1   
     2     1    21 ar  
     3     1    22 ar  
     4     2    19 1   
     5     2    20 2   
     6     3     4 1   
     7     3    18 1   
     8     3    19 2   
     9     4    22 1   
    10     4    29 1   
    11     4    30 1   
    12     5    17 1   
    13     5    18 1   
    14     5    31 1   
    15     5    32 1   
    16     6     7 1   
    17     6     9 1   
    18     6    17 1   
    19     7     8 1   
    20     7    16 2   
    21     8    15 1   
    22     8    33 1   
    23     8    34 1   
    24     9    18 1   
    25     9    35 1   
    26     9    36 1   
    27    10    11 1   
    28    10    21 ar  
    29    10    24 ar  
    30    11    12 ar  
    31    11    25 ar  
    32    12    13 ar  
    33    12    28 1   
    34    13    26 ar  
    35    13    37 1   
    36    14    25 ar  
    37    14    26 ar  
    38    14    38 1   
    39    15    39 1   
    40    15    40 1   
    41    15    41 1   
    42    17    42 1   
    43    17    43 1   
    44    18    44 1   
    45    21    45 1   
    46    22    23 ar  
    47    23    24 ar  
    48    23    46 1   
    49    24    47 1   
    50    25    48 1   
    51    26    27 1   
@<TRIPOS>SUBSTRUCTURE
     1 MZQ         1 TEMP              0 ****  ****    0 ROOT
