@<TRIPOS>MOLECULE
MZR
   31    32     1     0     0
SMALL
abcg2


@<TRIPOS>ATOM
      1 N1          -4.4730     1.5930    -0.6080 nt         1 MZR      -0.602000
      2 C4          -1.5200    -0.4800     0.1200 cc         1 MZR       0.101100
      3 C5          -2.4250     0.5370    -0.0790 cd         1 MZR       0.133500
      4 C6          -3.8400     0.4190    -0.4370 c          1 MZR       0.551600
      5 O6          -4.3920    -0.6690    -0.5730 o          1 MZR      -0.615100
      6 N7          -1.7950     1.7460     0.0970 nd         1 MZR      -0.663000
      7 C8          -0.5600     1.4780     0.3890 cc         1 MZR       0.410400
      8 N9          -0.3400     0.1310     0.4290 na         1 MZR      -0.261500
      9 C1           0.9050    -0.5630     0.7320 c5         1 MZR       0.304300
     10 C2           1.4670    -1.2810    -0.5010 c5         1 MZR       0.118300
     11 O2           0.9360    -2.5800    -0.5390 oh         1 MZR      -0.699000
     12 C3           2.9720    -1.1470    -0.2840 c5         1 MZR       0.115300
     13 O3           3.3630    -2.1330     0.6300 oh         1 MZR      -0.685000
     14 C7           3.0290     0.2600     0.3170 c5         1 MZR       0.122300
     15 O4           1.8620     0.3500     1.1430 os         1 MZR      -0.411000
     16 C9           3.0460     1.3590    -0.7280 c3         1 MZR       0.144600
     17 O5           2.9820     2.5960    -0.0630 oh         1 MZR      -0.702000
     18 HN1         -3.9910     2.4660    -0.4770 hn         1 MZR       0.319000
     19 HN1A        -5.4510     1.6150    -0.8390 hn         1 MZR       0.319000
     20 HO3         -0.8430    -2.2530    -0.1720 ho         1 MZR       0.491000
     21 H8           0.2250     2.1940     0.5740 h5         1 MZR       0.075100
     22 H1           0.6960    -1.2840     1.5320 h2         1 MZR       0.112700
     23 H2           1.1920    -0.7250    -1.4030 h1         1 MZR       0.060700
     24 HO2          1.0560    -2.9500    -1.4210 ho         1 MZR       0.528000
     25 H3           3.5350    -1.2080    -1.2240 h1         1 MZR       0.056700
     26 H6           4.3050    -2.0340     0.8030 ho         1 MZR       0.513000
     27 H4           3.8980     0.3790     0.9710 h1         1 MZR       0.096700
     28 H5           3.9680     1.2520    -1.3140 h1         1 MZR       0.025700
     29 H5'A         2.2090     1.2380    -1.4280 h1         1 MZR       0.025700
     30 HO5          2.9660     3.2930    -0.7250 ho         1 MZR       0.511000
     31 O1          -1.6740    -1.7960     0.0740 oh         1 MZR      -0.496100
@<TRIPOS>BOND
     1     1     4 1   
     2     1    18 1   
     3     1    19 1   
     4     2     3 2   
     5     2     8 1   
     6     2    31 1   
     7     3     4 1   
     8     3     6 1   
     9     4     5 2   
    10     6     7 2   
    11     7     8 1   
    12     7    21 1   
    13     8     9 1   
    14     9    10 1   
    15     9    15 1   
    16     9    22 1   
    17    10    11 1   
    18    10    12 1   
    19    10    23 1   
    20    11    24 1   
    21    12    13 1   
    22    12    14 1   
    23    12    25 1   
    24    13    26 1   
    25    14    15 1   
    26    14    16 1   
    27    14    27 1   
    28    16    17 1   
    29    16    28 1   
    30    16    29 1   
    31    17    30 1   
    32    20    31 1   
@<TRIPOS>SUBSTRUCTURE
     1 MZR         1 TEMP              0 ****  ****    0 ROOT
