@<TRIPOS>MOLECULE
MZR
   31    32     1     0     0
SMALL
No Charge or Current Charge


@<TRIPOS>ATOM
      1 N1          -4.9690     1.2810    -0.1130 nt         1 MZR      -0.602000
      2 C4          -1.5840    -0.2080    -0.2830 cc         1 MZR       0.101100
      3 C5          -2.6730     0.5730     0.0470 cd         1 MZR       0.133500
      4 C6          -4.0320     0.4290    -0.5940 c          1 MZR       0.551600
      5 O6          -4.3390    -0.3620    -1.4750 o          1 MZR      -0.615100
      6 N7          -2.3020     1.4590     1.0590 nd         1 MZR      -0.663000
      7 C8          -1.0250     1.2070     1.3180 cc         1 MZR       0.410400
      8 N9          -0.5210     0.2300     0.4860 na         1 MZR      -0.261500
      9 C1           0.8590    -0.2720     0.5620 c5         1 MZR       0.304300
     10 C2           1.3830    -1.1650    -0.6050 c5         1 MZR       0.118300
     11 O2           0.8350    -2.4910    -0.6170 oh         1 MZR      -0.699000
     12 C3           2.8920    -1.1650    -0.2500 c5         1 MZR       0.115300
     13 O3           3.1410    -2.0310     0.8740 oh         1 MZR      -0.685000
     14 C7           3.0850     0.3590     0.0900 c5         1 MZR       0.122300
     15 O4           1.7740     0.8410     0.5090 os         1 MZR      -0.411000
     16 C9           3.5740     1.2070    -1.1190 c3         1 MZR       0.144600
     17 O5           3.9330     2.5390    -0.7110 oh         1 MZR      -0.702000
     18 HN1         -4.7110     1.9320     0.6150 hn         1 MZR       0.319000
     19 HN1A        -5.9070     1.2570    -0.4830 hn         1 MZR       0.319000
     20 HO3         -0.6410    -1.7190    -0.9700 ho         1 MZR       0.491000
     21 H8          -0.4120     1.7060     2.0610 h5         1 MZR       0.075100
     22 H1           0.9570    -0.7950     1.5230 h2         1 MZR       0.112700
     23 H2           1.2130    -0.6700    -1.5720 h1         1 MZR       0.060700
     24 HO2          1.4530    -3.0190    -0.0490 ho         1 MZR       0.528000
     25 H3           3.5040    -1.4690    -1.1110 h1         1 MZR       0.056700
     26 H6           4.1190    -2.0730     1.0090 ho         1 MZR       0.513000
     27 H4           3.7980     0.4870     0.9160 h1         1 MZR       0.096700
     28 H5           4.4450     0.7090    -1.5660 h1         1 MZR       0.025700
     29 H5'A         2.7830     1.2370    -1.8810 h1         1 MZR       0.025700
     30 HO5          4.1760     3.0380    -1.5270 ho         1 MZR       0.511000
     31 O1          -1.4990    -1.2470    -1.1450 oh         1 MZR      -0.496100
@<TRIPOS>BOND
     1     1     4 1   
     2     1    18 1   
     3     1    19 1   
     4     2     3 2   
     5     2     8 1   
     6     2    31 1   
     7     3     4 1   
     8     3     6 1   
     9     4     5 2   
    10     6     7 2   
    11     7     8 1   
    12     7    21 1   
    13     8     9 1   
    14     9    10 1   
    15     9    15 1   
    16     9    22 1   
    17    10    11 1   
    18    10    12 1   
    19    10    23 1   
    20    11    24 1   
    21    12    13 1   
    22    12    14 1   
    23    12    25 1   
    24    13    26 1   
    25    14    15 1   
    26    14    16 1   
    27    14    27 1   
    28    16    17 1   
    29    16    28 1   
    30    16    29 1   
    31    17    30 1   
    32    20    31 1   
@<TRIPOS>SUBSTRUCTURE
     1 MZR         1 TEMP              0 ****  ****    0 ROOT
