@<TRIPOS>MOLECULE
MZS
   26    27     1     0     0
SMALL
abcg2


@<TRIPOS>ATOM
      1 F          -16.0550    14.4630   -20.8560 f          1 MZS      -0.219000
      2 C2         -17.3370    14.4630   -20.4050 ca         1 MZS       0.126000
      3 C1         -18.0080    15.6670   -20.3090 ca         1 MZS      -0.161500
      4 C3         -17.9240    13.2580   -20.0670 ca         1 MZS      -0.161500
      5 C4         -19.2410    13.2690   -19.6220 ca         1 MZS      -0.065500
      6 C5         -19.9530    14.4630   -19.5120 ca         1 MZS      -0.063300
      7 C          -19.3230    15.6580   -19.8560 ca         1 MZS      -0.065500
      8 C6         -21.3780    14.4370   -19.0070 c3         1 MZS       0.145900
      9 N          -22.1720    15.5530   -19.4930 na         1 MZS       0.094800
     10 N1         -22.3360    16.6190   -18.6910 nc         1 MZS      -0.570800
     11 C9         -22.9590    17.5450   -19.4310 cd         1 MZS       0.194500
     12 C10        -23.3390    18.9000   -18.8780 c          1 MZS       0.625500
     13 O1         -23.8360    19.7070   -19.7070 o          1 MZS      -0.742500
     14 O          -23.1330    19.1160   -17.6570 o          1 MZS      -0.742500
     15 C8         -23.1720    17.0580   -20.7330 cd         1 MZS      -0.197000
     16 C7         -22.6560    15.7750   -20.7540 cc         1 MZS      -0.217600
     17 C11        -22.6400    14.7790   -21.8900 c          1 MZS       0.735600
     18 O2         -22.4000    13.5780   -21.6110 o          1 MZS      -0.740500
     19 O3         -22.8880    15.2530   -23.0250 o          1 MZS      -0.740500
     20 H1         -17.5130    16.5890   -20.5850 ha         1 MZS       0.109000
     21 H3         -17.3660    12.3350   -20.1620 ha         1 MZS       0.109000
     22 H          -19.8610    16.5930   -19.7800 ha         1 MZS       0.132500
     23 H4         -19.7230    12.3330   -19.3680 ha         1 MZS       0.132500
     24 H61C       -21.8560    13.5110   -19.3130 h1         1 MZS       0.069700
     25 H62C       -21.3990    14.5080   -17.9190 h1         1 MZS       0.069700
     26 H8         -23.6520    17.5660   -21.5510 ha         1 MZS       0.142000
@<TRIPOS>BOND
     1     1     2 1   
     2     2     3 ar  
     3     2     4 ar  
     4     3     7 ar  
     5     3    20 1   
     6     4     5 ar  
     7     4    21 1   
     8     5     6 ar  
     9     5    23 1   
    10     6     7 ar  
    11     6     8 1   
    12     7    22 1   
    13     8     9 1   
    14     8    24 1   
    15     8    25 1   
    16     9    10 1   
    17     9    16 1   
    18    10    11 2   
    19    11    12 1   
    20    11    15 1   
    21    12    13 1   
    22    12    14 1   
    23    15    16 2   
    24    15    26 1   
    25    16    17 1   
    26    17    18 1   
    27    17    19 1   
@<TRIPOS>SUBSTRUCTURE
     1 MZS         1 TEMP              0 ****  ****    0 ROOT
