@<TRIPOS>MOLECULE
MZS
   26    27     1     0     0
SMALL
No Charge or Current Charge


@<TRIPOS>ATOM
      1 F          -15.9120    14.2880   -20.8350 f          1 MZS      -0.219000
      2 C2         -17.1870    14.3500   -20.3970 ca         1 MZS       0.126000
      3 C1         -17.7640    15.5940   -20.1010 ca         1 MZS      -0.161500
      4 C3         -17.9280    13.1710   -20.2350 ca         1 MZS      -0.161500
      5 C4         -19.2570    13.2350   -19.7780 ca         1 MZS      -0.065500
      6 C5         -19.8510    14.4800   -19.4830 ca         1 MZS      -0.063300
      7 C          -19.0920    15.6610   -19.6430 ca         1 MZS      -0.065500
      8 C6         -21.2940    14.5290   -18.9750 c3         1 MZS       0.145900
      9 N          -22.0970    15.6600   -19.4930 na         1 MZS       0.094800
     10 N1         -22.2980    16.7750   -18.6950 nc         1 MZS      -0.570800
     11 C9         -23.0410    17.5870   -19.4500 cd         1 MZS       0.194500
     12 C10        -23.5320    18.9680   -19.0160 c          1 MZS       0.625500
     13 O1         -24.2110    19.6270   -19.7960 o          1 MZS      -0.742500
     14 O          -23.2440    19.3970   -17.9030 o          1 MZS      -0.742500
     15 C8         -23.3090    16.9870   -20.7040 cd         1 MZS      -0.197000
     16 C7         -22.7160    15.7510   -20.7410 cc         1 MZS      -0.217600
     17 C11        -22.7780    14.8030   -21.8870 c          1 MZS       0.735600
     18 O2         -22.2250    13.7180   -21.7920 o          1 MZS      -0.740500
     19 O3         -23.3950    15.1360   -22.8890 o          1 MZS      -0.740500
     20 H1         -17.1830    16.5050   -20.2250 ha         1 MZS       0.109000
     21 H3         -17.4750    12.2090   -20.4640 ha         1 MZS       0.109000
     22 H          -19.5270    16.6300   -19.4110 ha         1 MZS       0.132500
     23 H4         -19.8260    12.3150   -19.6550 ha         1 MZS       0.132500
     24 H61C       -21.8100    13.5960   -19.2300 h1         1 MZS       0.069700
     25 H62C       -21.2750    14.5890   -17.8800 h1         1 MZS       0.069700
     26 H8         -23.8940    17.4350   -21.5000 ha         1 MZS       0.142000
@<TRIPOS>BOND
     1     1     2 1   
     2     2     3 ar  
     3     2     4 ar  
     4     3     7 ar  
     5     3    20 1   
     6     4     5 ar  
     7     4    21 1   
     8     5     6 ar  
     9     5    23 1   
    10     6     7 ar  
    11     6     8 1   
    12     7    22 1   
    13     8     9 1   
    14     8    24 1   
    15     8    25 1   
    16     9    10 1   
    17     9    16 1   
    18    10    11 2   
    19    11    12 1   
    20    11    15 1   
    21    12    13 1   
    22    12    14 1   
    23    15    16 2   
    24    15    26 1   
    25    16    17 1   
    26    17    18 1   
    27    17    19 1   
@<TRIPOS>SUBSTRUCTURE
     1 MZS         1 TEMP              0 ****  ****    0 ROOT
