@<TRIPOS>MOLECULE
MZT
   28    27     1     0     0
SMALL
No Charge or Current Charge


@<TRIPOS>ATOM
      1 N1          -2.1680    -0.3030    -0.0020 n4         1 MZT      -0.502000
      2 C8          -2.0750    -1.6130     0.7990 c3         1 MZT       0.076567
      3 O4           3.5660    -0.1230    -0.7570 o          1 MZT      -0.710000
      4 C5           2.9450    -0.2100     0.2920 c          1 MZT       0.722000
      5 O7           3.2270    -0.9910     1.1870 o          1 MZT      -0.710000
      6 C6           1.6940     0.6660     0.4640 c3         1 MZT      -0.220400
      7 C2          -0.9260     0.5910     0.2630 c3         1 MZT       0.127300
      8 C9          -2.2900    -0.6420    -1.4960 c3         1 MZT       0.076567
      9 C10         -3.4550     0.4080     0.4490 c3         1 MZT       0.076567
     10 C3           0.4420    -0.0720    -0.0860 c3         1 MZT      -0.079400
     11 C21         -1.0130     2.0070    -0.3670 c3         1 MZT      -0.121100
     12 H81C        -1.9410    -1.3790     1.8570 hx         1 MZT       0.088922
     13 H82C        -2.9970    -2.1820     0.6620 hx         1 MZT       0.088922
     14 H83C        -1.2310    -2.2040     0.4400 hx         1 MZT       0.088922
     15 H2          -0.9220     0.7400     1.3460 hx         1 MZT       0.079700
     16 H91C        -3.1720    -1.2660    -1.6530 hx         1 MZT       0.088922
     17 H92C        -2.3880     0.2820    -2.0680 hx         1 MZT       0.088922
     18 H93C        -1.3970    -1.1820    -1.8170 hx         1 MZT       0.088922
     19 H101        -3.3610     0.6900     1.4990 hx         1 MZT       0.088922
     20 H102        -3.6110     1.2990    -0.1620 hx         1 MZT       0.088922
     21 H103        -4.3020    -0.2690     0.3240 hx         1 MZT       0.088922
     22 H61C         1.4990     0.8400     1.5290 hc         1 MZT       0.031200
     23 H62C         1.8020     1.5830    -0.1260 hc         1 MZT       0.031200
     24 H31C         0.5320    -0.1770    -1.1750 hc         1 MZT       0.063700
     25 H32C         0.4620    -1.0890     0.3210 hc         1 MZT       0.063700
     26 H211        -0.1900     2.6440    -0.0280 hc         1 MZT       0.064700
     27 H212        -0.9760     1.9520    -1.4610 hc         1 MZT       0.064700
     28 H213        -1.9360     2.5200    -0.0800 hc         1 MZT       0.064700
@<TRIPOS>BOND
     1     1     2 1   
     2     1     7 1   
     3     1     8 1   
     4     1     9 1   
     5     2    12 1   
     6     2    13 1   
     7     2    14 1   
     8     3     4 1   
     9     4     5 1   
    10     4     6 1   
    11     6    10 1   
    12     6    22 1   
    13     6    23 1   
    14     7    10 1   
    15     7    11 1   
    16     7    15 1   
    17     8    16 1   
    18     8    17 1   
    19     8    18 1   
    20     9    19 1   
    21     9    20 1   
    22     9    21 1   
    23    10    24 1   
    24    10    25 1   
    25    11    26 1   
    26    11    27 1   
    27    11    28 1   
@<TRIPOS>SUBSTRUCTURE
     1 MZT         1 TEMP              0 ****  ****    0 ROOT
