@<TRIPOS>MOLECULE
MZT
   28    27     1     0     0
SMALL
bcc


@<TRIPOS>ATOM
      1 N1          -2.1610    -0.2820     0.0390 n4         1 MZT      -0.614800
      2 C8          -2.0220    -1.5830     0.7540 c3         1 MZT       0.104767
      3 O4           3.9710     0.5510     0.4760 o          1 MZT      -0.815300
      4 C5           2.9390    -0.1330     0.3220 c          1 MZT       0.932600
      5 O7           2.8790    -1.3720     0.2030 o          1 MZT      -0.815300
      6 C6           1.6170     0.6630     0.2810 c3         1 MZT      -0.220400
      7 C2          -0.9140     0.5940     0.2580 c3         1 MZT       0.155500
      8 C9          -2.4010    -0.5580    -1.4040 c3         1 MZT       0.104767
      9 C10         -3.3580     0.4060     0.6020 c3         1 MZT       0.104767
     10 C3           0.3790    -0.1900     0.0430 c3         1 MZT      -0.079400
     11 C21         -0.9710     1.8550    -0.5890 c3         1 MZT      -0.121100
     12 H81C        -1.7350    -1.4010     1.7860 hx         1 MZT       0.088922
     13 H82C        -2.9790    -2.0970     0.7260 hx         1 MZT       0.088922
     14 H83C        -1.2780    -2.2020     0.2650 hx         1 MZT       0.088922
     15 H2          -0.9830     0.8700     1.3140 hx         1 MZT       0.079700
     16 H91C        -3.2310    -1.2560    -1.4900 hx         1 MZT       0.088922
     17 H92C        -2.6540     0.3620    -1.9210 hx         1 MZT       0.088922
     18 H93C        -1.5140    -0.9980    -1.8480 hx         1 MZT       0.088922
     19 H101        -3.1800     0.6290     1.6510 hx         1 MZT       0.088922
     20 H102        -3.5610     1.3220     0.0590 hx         1 MZT       0.088922
     21 H103        -4.2180    -0.2520     0.5120 hx         1 MZT       0.088922
     22 H61C         1.5210     1.2090     1.2270 hc         1 MZT       0.031200
     23 H62C         1.7180     1.4310    -0.4900 hc         1 MZT       0.031200
     24 H31C         0.4100    -0.6040    -0.9680 hc         1 MZT       0.063700
     25 H32C         0.4250    -1.0330     0.7310 hc         1 MZT       0.063700
     26 H211        -0.2190     2.5470    -0.2160 hc         1 MZT       0.064700
     27 H212        -0.7410     1.6560    -1.6360 hc         1 MZT       0.064700
     28 H213        -1.9200     2.3850    -0.5340 hc         1 MZT       0.064700
@<TRIPOS>BOND
     1     1     2 1   
     2     1     7 1   
     3     1     8 1   
     4     1     9 1   
     5     2    12 1   
     6     2    13 1   
     7     2    14 1   
     8     3     4 1   
     9     4     5 1   
    10     4     6 1   
    11     6    10 1   
    12     6    22 1   
    13     6    23 1   
    14     7    10 1   
    15     7    11 1   
    16     7    15 1   
    17     8    16 1   
    18     8    17 1   
    19     8    18 1   
    20     9    19 1   
    21     9    20 1   
    22     9    21 1   
    23    10    24 1   
    24    10    25 1   
    25    11    26 1   
    26    11    27 1   
    27    11    28 1   
@<TRIPOS>SUBSTRUCTURE
     1 MZT         1 TEMP              0 ****  ****    0 ROOT
