@<TRIPOS>MOLECULE
MZV
   43    46     1     0     0
SMALL
bcc


@<TRIPOS>ATOM
      1 C11         18.4370    89.6010    19.7340 cp         1 MZV      -0.151500
      2 C16         18.0760    91.6160    22.8960 ca         1 MZV      -0.087000
      3 C15         19.3110    92.2440    22.8930 ca         1 MZV      -0.239300
      4 C14         20.1750    91.9720    21.8420 ca         1 MZV       0.413200
      5 C22         23.9770    90.5640    14.5970 ca         1 MZV      -0.115500
      6 C23         25.3070    90.9510    15.0490 cc         1 MZV       0.459000
      7 C20         21.7290    89.8800    15.1750 ca         1 MZV       0.074600
      8 C02         19.5970    89.0560    16.1450 c          1 MZV       0.692700
      9 C03         18.8980    88.9090    17.4600 ca         1 MZV      -0.170600
     10 C04         17.9410    87.9070    17.5670 ca         1 MZV      -0.020000
     11 C05         17.2560    87.7390    18.7600 ca         1 MZV      -0.211300
     12 C06         16.2840    86.6060    18.8900 c3         1 MZV       0.724200
     13 C10         17.5020    88.5760    19.8390 ca         1 MZV      -0.046000
     14 C12         18.7020    90.5220    20.8630 cp         1 MZV       0.461800
     15 C17         17.7620    90.7440    21.8670 ca         1 MZV      -0.230300
     16 C18         19.1380    89.7510    18.5390 ca         1 MZV      -0.042000
     17 C21         23.0150    90.2620    15.5520 ca         1 MZV      -0.137000
     18 C28         23.6590    90.4920    13.2430 ca         1 MZV      -0.142000
     19 C29         22.3780    90.1200    12.8730 ca         1 MZV      -0.103000
     20 C30         21.4090    89.8130    13.8170 ca         1 MZV      -0.128000
     21 F07         15.6040    86.3990    17.7580 f          1 MZV      -0.231967
     22 F08         16.9120    85.4560    19.1790 f          1 MZV      -0.231967
     23 F09         15.3870    86.8120    19.8580 f          1 MZV      -0.231967
     24 N13         19.8830    91.1370    20.8560 nb         1 MZV      -0.679000
     25 N19         20.8370    89.6020    16.2130 ns         1 MZV      -0.467100
     26 N24         26.3620    91.2300    14.2800 na         1 MZV      -0.160400
     27 N25         27.3910    91.5370    15.0490 nc         1 MZV      -0.203800
     28 N26         26.9800    91.4500    16.2510 nd         1 MZV      -0.040000
     29 N27         25.7000    91.0910    16.2960 nd         1 MZV      -0.391000
     30 O01         19.0690    88.6860    15.1130 o          1 MZV      -0.573100
     31 H1          17.3600    91.8060    23.6850 ha         1 MZV       0.142000
     32 H2          19.5990    92.9310    23.6760 ha         1 MZV       0.147000
     33 H3          21.1480    92.4480    21.7970 h4         1 MZV       0.025100
     34 H4          17.7470    87.2620    16.7200 ha         1 MZV       0.171000
     35 H5          16.9740    88.4260    20.7710 ha         1 MZV       0.152000
     36 H6          16.7930    90.2630    21.8440 ha         1 MZV       0.145000
     37 H7          19.8500    90.5620    18.4680 ha         1 MZV       0.159000
     38 H8          23.2700    90.3230    16.6030 ha         1 MZV       0.159000
     39 H9          24.3870    90.7210    12.4760 ha         1 MZV       0.127000
     40 H10         22.1220    90.0650    11.8240 ha         1 MZV       0.140000
     41 H11         20.4250    89.5250    13.4890 ha         1 MZV       0.172000
     42 H12         21.2150    89.7520    17.1350 hn         1 MZV       0.330500
     43 H13         26.4620    91.2290    13.2740 hn         1 MZV       0.337700
@<TRIPOS>BOND
     1     1    13 ar  
     2     1    14 1   
     3     1    16 ar  
     4     2     3 ar  
     5     2    15 ar  
     6     2    31 1   
     7     3     4 ar  
     8     3    32 1   
     9     4    24 ar  
    10     4    33 1   
    11     5     6 1   
    12     5    17 ar  
    13     5    18 ar  
    14     6    26 1   
    15     6    29 2   
    16     7    17 ar  
    17     7    20 ar  
    18     7    25 1   
    19     8     9 1   
    20     8    25 1   
    21     8    30 2   
    22     9    10 ar  
    23     9    16 ar  
    24    10    11 ar  
    25    10    34 1   
    26    11    12 1   
    27    11    13 ar  
    28    12    21 1   
    29    12    22 1   
    30    12    23 1   
    31    13    35 1   
    32    14    15 ar  
    33    14    24 ar  
    34    15    36 1   
    35    16    37 1   
    36    17    38 1   
    37    18    19 ar  
    38    18    39 1   
    39    19    20 ar  
    40    19    40 1   
    41    20    41 1   
    42    25    42 1   
    43    26    27 1   
    44    26    43 1   
    45    27    28 2   
    46    28    29 1   
@<TRIPOS>SUBSTRUCTURE
     1 MZV         1 TEMP              0 ****  ****    0 ROOT
