@<TRIPOS>MOLECULE
MZV
   43    46     1     0     0
SMALL
No Charge or Current Charge


@<TRIPOS>ATOM
      1 C11         18.4590    89.5060    19.7370 cp         1 MZV      -0.151500
      2 C16         18.3620    91.6230    22.9430 ca         1 MZV      -0.069000
      3 C15         19.7300    91.9200    23.0340 ca         1 MZV      -0.156000
      4 C14         20.6010    91.4250    22.0510 ca         1 MZV       0.347900
      5 C22         23.9850    90.7250    14.6100 ca         1 MZV      -0.115500
      6 C23         25.1450    91.5290    15.0280 cc         1 MZV       0.459000
      7 C20         21.8300    89.6640    15.1550 ca         1 MZV      -0.018000
      8 C02         19.6870    88.6450    16.1590 c          1 MZV       0.625700
      9 C03         18.8670    88.6830    17.4360 ca         1 MZV      -0.170600
     10 C04         17.6980    87.8960    17.5250 ca         1 MZV      -0.002000
     11 C05         16.9060    87.9000    18.6910 ca         1 MZV      -0.211300
     12 C06         15.6510    87.0240    18.7790 c3         1 MZV       0.360300
     13 C10         17.2970    88.6950    19.7870 ca         1 MZV      -0.028000
     14 C12         18.8650    90.3570    20.9110 cp         1 MZV       0.396500
     15 C17         17.9280    90.8330    21.8660 ca         1 MZV      -0.147000
     16 C18         19.2330    89.4820    18.5470 ca         1 MZV      -0.024000
     17 C21         22.9500    90.4330    15.5280 ca         1 MZV      -0.119000
     18 C28         23.8770    90.2290    13.2920 ca         1 MZV      -0.124000
     19 C29         22.7630    89.4660    12.9080 ca         1 MZV      -0.085000
     20 C30         21.7430    89.1830    13.8300 ca         1 MZV      -0.110000
     21 F07         15.0760    86.8220    17.5710 f          1 MZV      -0.110667
     22 F08         15.9380    85.8060    19.2890 f          1 MZV      -0.110667
     23 F09         14.6980    87.5690    19.5700 f          1 MZV      -0.110667
     24 N13         20.1800    90.6660    21.0130 nb         1 MZV      -0.679000
     25 N19         20.8380    89.4250    16.1480 ns         1 MZV      -0.141000
     26 N24         26.2080    91.8820    14.2460 na         1 MZV      -0.210700
     27 N25         27.0950    92.6250    14.9540 nc         1 MZV      -0.203800
     28 N26         26.5670    92.7150    16.1440 nd         1 MZV      -0.040000
     29 N27         25.3650    92.0500    16.2190 nd         1 MZV      -0.391000
     30 O01         19.3370    87.9550    15.2070 o          1 MZV      -0.573100
     31 H1          17.6570    91.9980    23.6830 ha         1 MZV       0.124000
     32 H2          20.1160    92.5270    23.8480 ha         1 MZV       0.129000
     33 H3          21.6670    91.6430    22.0930 h4         1 MZV       0.025100
     34 H4          17.4070    87.2700    16.6830 ha         1 MZV       0.153000
     35 H5          16.7020    88.6650    20.6960 ha         1 MZV       0.134000
     36 H6          16.8720    90.6070    21.7650 ha         1 MZV       0.127000
     37 H7          20.1220    90.1060    18.5020 ha         1 MZV       0.141000
     38 H8          23.0160    90.8070    16.5480 ha         1 MZV       0.141000
     39 H9          24.6500    90.4310    12.5540 ha         1 MZV       0.109000
     40 H10         22.6890    89.0920    11.8890 ha         1 MZV       0.122000
     41 H11         20.8950    88.5970    13.4910 ha         1 MZV       0.154000
     42 H12         21.0070    89.9220    17.0110 hn         1 MZV       0.164000
     43 H13         26.3520    91.6430    13.2740 hn         1 MZV       0.388000
@<TRIPOS>BOND
     1     1    13 ar  
     2     1    14 1   
     3     1    16 ar  
     4     2     3 ar  
     5     2    15 ar  
     6     2    31 1   
     7     3     4 ar  
     8     3    32 1   
     9     4    24 ar  
    10     4    33 1   
    11     5     6 1   
    12     5    17 ar  
    13     5    18 ar  
    14     6    26 1   
    15     6    29 2   
    16     7    17 ar  
    17     7    20 ar  
    18     7    25 1   
    19     8     9 1   
    20     8    25 1   
    21     8    30 2   
    22     9    10 ar  
    23     9    16 ar  
    24    10    11 ar  
    25    10    34 1   
    26    11    12 1   
    27    11    13 ar  
    28    12    21 1   
    29    12    22 1   
    30    12    23 1   
    31    13    35 1   
    32    14    15 ar  
    33    14    24 ar  
    34    15    36 1   
    35    16    37 1   
    36    17    38 1   
    37    18    19 ar  
    38    18    39 1   
    39    19    20 ar  
    40    19    40 1   
    41    20    41 1   
    42    25    42 1   
    43    26    27 1   
    44    26    43 1   
    45    27    28 2   
    46    28    29 1   
@<TRIPOS>SUBSTRUCTURE
     1 MZV         1 TEMP              0 ****  ****    0 ROOT
