@<TRIPOS>MOLECULE
MZW
   15    15     1     0     0
SMALL
No Charge or Current Charge


@<TRIPOS>ATOM
      1 N1          15.6160    -9.9590    81.0500 nc         1 MZW      -0.410000
      2 N3          14.3280    -8.2300    81.8500 nv         1 MZW      -1.032900
      3 C4          16.8940    -9.5640    76.7420 c3         1 MZW      -0.090100
      4 S1          15.8240    -7.7460    79.6620 ss         1 MZW      -0.356800
      5 C1          15.2080    -8.7110    80.9570 cd         1 MZW       0.662300
      6 N2          16.5130   -10.2540    80.0320 nc         1 MZW      -0.296000
      7 C2          16.7060    -9.1960    79.2510 cd         1 MZW       0.416700
      8 C3          17.6290    -9.2460    78.0620 c3         1 MZW      -0.111700
      9 H1          13.8230    -7.3890    81.5950 hn         1 MZW       0.481000
     10 H2          13.8260    -8.9120    82.4080 hn         1 MZW       0.481000
     11 H3          17.6020    -9.5890    75.9050 hc         1 MZW       0.041033
     12 H4          16.3960   -10.5390    76.8010 hc         1 MZW       0.041033
     13 H5          16.1360    -8.8010    76.5270 hc         1 MZW       0.041033
     14 H6          18.4100    -9.9990    78.2260 hc         1 MZW       0.067700
     15 H7          18.1450    -8.2850    77.9600 hc         1 MZW       0.067700
@<TRIPOS>BOND
     1     1     5 2   
     2     1     6 1   
     3     2     5 1   
     4     2     9 1   
     5     2    10 1   
     6     3     8 1   
     7     3    11 1   
     8     3    12 1   
     9     3    13 1   
    10     4     5 1   
    11     4     7 1   
    12     6     7 2   
    13     7     8 1   
    14     8    14 1   
    15     8    15 1   
@<TRIPOS>SUBSTRUCTURE
     1 MZW         1 TEMP              0 ****  ****    0 ROOT
