@<TRIPOS>MOLECULE
MZW
   15    15     1     0     0
SMALL
bcc


@<TRIPOS>ATOM
      1 N1          15.8310    -9.8350    81.1820 nc         1 MZW      -0.410000
      2 N3          14.2680    -8.1960    81.7950 nv         1 MZW      -0.922500
      3 C4          16.8710    -9.4480    76.7460 c3         1 MZW      -0.090100
      4 S1          15.6420    -7.9530    79.4740 ss         1 MZW      -0.356800
      5 C1          15.1780    -8.7360    80.9550 cd         1 MZW       0.662300
      6 N2          16.7300   -10.1200    80.2110 nc         1 MZW      -0.296000
      7 C2          16.7700    -9.2670    79.2520 cd         1 MZW       0.416700
      8 C3          17.6510    -9.3520    78.0550 c3         1 MZW      -0.111700
      9 H1          13.5800    -7.5670    81.4160 hn         1 MZW       0.425800
     10 H2          13.9100    -8.8140    82.5070 hn         1 MZW       0.425800
     11 H3          17.5560    -9.5240    75.9030 hc         1 MZW       0.041033
     12 H4          16.2250   -10.3260    76.7370 hc         1 MZW       0.041033
     13 H5          16.2460    -8.5690    76.5840 hc         1 MZW       0.041033
     14 H6          18.2860   -10.2300    78.1820 hc         1 MZW       0.067700
     15 H7          18.3120    -8.4820    78.0280 hc         1 MZW       0.067700
@<TRIPOS>BOND
     1     1     5 2   
     2     1     6 1   
     3     2     5 1   
     4     2     9 1   
     5     2    10 1   
     6     3     8 1   
     7     3    11 1   
     8     3    12 1   
     9     3    13 1   
    10     4     5 1   
    11     4     7 1   
    12     6     7 2   
    13     7     8 1   
    14     8    14 1   
    15     8    15 1   
@<TRIPOS>SUBSTRUCTURE
     1 MZW         1 TEMP              0 ****  ****    0 ROOT
