@<TRIPOS>MOLECULE
MZX
   29    30     1     0     0
SMALL
No Charge or Current Charge


@<TRIPOS>ATOM
      1 C1          -1.5520     0.8210     0.0110 ca         1 MZX       0.174100
      2 C2          -0.6340    -0.2720     0.0080 ca         1 MZX      -0.129800
      3 C3           0.7480     0.0350     0.0050 ca         1 MZX       0.112600
      4 C4           1.2260     1.3610     0.0060 ca         1 MZX       0.047100
      5 C5           0.3060     2.4240     0.0100 ca         1 MZX      -0.110000
      6 C6          -1.0690     2.1510     0.0120 ca         1 MZX      -0.219000
      7 C7          -1.0600    -1.7040     0.0060 cc         1 MZX       0.045600
      8 C8          -0.0330    -2.6400     0.0030 cd         1 MZX      -0.321200
      9 C9           1.4040    -2.3410     0.0000 c          1 MZX       0.563200
     10 N10          1.6750    -1.0120     0.0020 ns         1 MZX      -0.362100
     11 O11         -2.9130     0.5810     0.0130 os         1 MZX      -0.340100
     12 O12          2.5960     1.5710     0.0040 os         1 MZX      -0.355100
     13 C13          3.1740     2.8900     0.0050 c3         1 MZX       0.153900
     14 C14         -3.9000     1.6280     0.0170 c3         1 MZX       0.148900
     15 C15         -2.4920    -2.1860     0.0090 c3         1 MZX      -0.053900
     16 O17          2.2800    -3.1900    -0.0030 o          1 MZX      -0.559000
     17 H5           0.6340     3.4600     0.0100 ha         1 MZX       0.120000
     18 H6          -1.7480     2.9980     0.0150 ha         1 MZX       0.121000
     19 H8          -0.2440    -3.7020     0.0020 ha         1 MZX       0.205000
     20 HN10         2.6520    -0.7500     0.0000 hn         1 MZX       0.343500
     21 H13          2.8660     3.4520    -0.8860 h1         1 MZX       0.042367
     22 H13A         2.8700     3.4490     0.8980 h1         1 MZX       0.042367
     23 H13B         4.2700     2.8240     0.0020 h1         1 MZX       0.042367
     24 H14         -3.7990     2.2580     0.9100 h1         1 MZX       0.043367
     25 H14A        -3.8030     2.2600    -0.8750 h1         1 MZX       0.043367
     26 H14B        -4.9090     1.1980     0.0180 h1         1 MZX       0.043367
     27 H15         -3.0280    -1.8360    -0.8810 hc         1 MZX       0.052033
     28 H15A        -2.5500    -3.2810     0.0070 hc         1 MZX       0.052033
     29 H15B        -3.0240    -1.8380     0.9020 hc         1 MZX       0.052033
@<TRIPOS>BOND
     1     1     2 ar  
     2     1     6 ar  
     3     1    11 1   
     4     2     3 ar  
     5     2     7 1   
     6     3     4 ar  
     7     3    10 1   
     8     4     5 ar  
     9     4    12 1   
    10     5     6 ar  
    11     5    17 1   
    12     6    18 1   
    13     7     8 2   
    14     7    15 1   
    15     8     9 1   
    16     8    19 1   
    17     9    10 1   
    18     9    16 2   
    19    10    20 1   
    20    11    14 1   
    21    12    13 1   
    22    13    21 1   
    23    13    22 1   
    24    13    23 1   
    25    14    24 1   
    26    14    25 1   
    27    14    26 1   
    28    15    27 1   
    29    15    28 1   
    30    15    29 1   
@<TRIPOS>SUBSTRUCTURE
     1 MZX         1 TEMP              0 ****  ****    0 ROOT
