@<TRIPOS>MOLECULE
MZX
   29    30     1     0     0
SMALL
abcg2


@<TRIPOS>ATOM
      1 C1          -1.5570     0.8480     0.0170 ca         1 MZX       0.174100
      2 C2          -0.6480    -0.2480     0.0100 ca         1 MZX      -0.129800
      3 C3           0.7250     0.0490     0.0060 ca         1 MZX       0.112600
      4 C4           1.2000     1.3770     0.0060 ca         1 MZX       0.047100
      5 C5           0.2930     2.4050     0.0130 ca         1 MZX      -0.110000
      6 C6          -1.0810     2.1420     0.0200 ca         1 MZX      -0.219000
      7 C7          -1.0180    -1.6530     0.0080 cc         1 MZX       0.045600
      8 C8          -0.0420    -2.5950     0.0040 cd         1 MZX      -0.321200
      9 C9           1.3690    -2.2940     0.0000 c          1 MZX       0.563200
     10 N10          1.6520    -0.9580     0.0010 ns         1 MZX      -0.362100
     11 O11         -2.8670     0.5540     0.0220 os         1 MZX      -0.340100
     12 O12          2.5450     1.5070     0.0000 os         1 MZX      -0.355100
     13 C13          3.0850     2.8130     0.0020 c3         1 MZX       0.153900
     14 C14         -3.8090     1.6060     0.0130 c3         1 MZX       0.148900
     15 C15         -2.4390    -2.1370     0.0090 c3         1 MZX      -0.053900
     16 O17          2.2640    -3.1340    -0.0040 o          1 MZX      -0.559000
     17 H5           0.6170     3.4370     0.0120 ha         1 MZX       0.120000
     18 H6          -1.7560     2.9850     0.0270 ha         1 MZX       0.121000
     19 H8          -0.3050    -3.6440     0.0040 ha         1 MZX       0.205000
     20 HN10         2.6290    -0.6980    -0.0020 hn         1 MZX       0.343500
     21 H13          2.7820     3.3760    -0.8850 h1         1 MZX       0.042367
     22 H13A         2.7880     3.3710     0.8940 h1         1 MZX       0.042367
     23 H13B         4.1660     2.7020    -0.0030 h1         1 MZX       0.042367
     24 H14         -3.7260     2.2380     0.9010 h1         1 MZX       0.043367
     25 H14A        -3.7130     2.2340    -0.8770 h1         1 MZX       0.043367
     26 H14B        -4.7900     1.1370     0.0070 h1         1 MZX       0.043367
     27 H15         -2.9860    -1.7880    -0.8650 hc         1 MZX       0.052033
     28 H15A        -2.4550    -3.2260     0.0020 hc         1 MZX       0.052033
     29 H15B        -2.9820    -1.7980     0.8880 hc         1 MZX       0.052033
@<TRIPOS>BOND
     1     1     2 ar  
     2     1     6 ar  
     3     1    11 1   
     4     2     3 ar  
     5     2     7 1   
     6     3     4 ar  
     7     3    10 1   
     8     4     5 ar  
     9     4    12 1   
    10     5     6 ar  
    11     5    17 1   
    12     6    18 1   
    13     7     8 2   
    14     7    15 1   
    15     8     9 1   
    16     8    19 1   
    17     9    10 1   
    18     9    16 2   
    19    10    20 1   
    20    11    14 1   
    21    12    13 1   
    22    13    21 1   
    23    13    22 1   
    24    13    23 1   
    25    14    24 1   
    26    14    25 1   
    27    14    26 1   
    28    15    27 1   
    29    15    28 1   
    30    15    29 1   
@<TRIPOS>SUBSTRUCTURE
     1 MZX         1 TEMP              0 ****  ****    0 ROOT
