@<TRIPOS>MOLECULE
MZY
   10    10     1     0     0
SMALL
bcc


@<TRIPOS>ATOM
      1 S2          -1.9180     0.0540     0.0180 s          1 MZY      -0.650400
      2 C2          -0.2370     0.0410     0.0130 cs         1 MZY       0.518400
      3 N3           0.5980     1.0990     0.0090 ns         1 MZY      -0.365600
      4 C3A          1.9150     0.6970     0.0060 cc         1 MZY      -0.124900
      5 C1A          1.9040    -0.6510     0.0080 cd         1 MZY      -0.124900
      6 N1           0.5810    -1.0320     0.0120 ns         1 MZY      -0.365600
      7 H1           2.7320     1.3950     0.0040 h4         1 MZY       0.187000
      8 H2           2.7100    -1.3620     0.0070 h4         1 MZY       0.187000
      9 H3           0.2780     2.0540     0.0090 hn         1 MZY       0.369500
     10 H4           0.2460    -1.9820     0.0160 hn         1 MZY       0.369500
@<TRIPOS>BOND
     1     1     2 2   
     2     2     3 1   
     3     2     6 1   
     4     3     4 1   
     5     3     9 1   
     6     4     5 2   
     7     4     7 1   
     8     5     6 1   
     9     5     8 1   
    10     6    10 1   
@<TRIPOS>SUBSTRUCTURE
     1 MZY         1 TEMP              0 ****  ****    0 ROOT
