@<TRIPOS>MOLECULE
MZY
   10    10     1     0     0
SMALL
No Charge or Current Charge


@<TRIPOS>ATOM
      1 S2          -1.9090     0.0780     0.0180 s          1 MZY      -0.650400
      2 C2          -0.2460     0.0390     0.0130 cs         1 MZY       0.384400
      3 N3           0.6120     1.0850     0.0090 ns         1 MZY      -0.412100
      4 C3A          1.9360     0.7150     0.0060 cc         1 MZY      -0.174900
      5 C1A          1.9100    -0.6530     0.0080 cd         1 MZY      -0.174900
      6 N1           0.5730    -1.0590     0.0130 ns         1 MZY      -0.412100
      7 H1           2.7350     1.4580     0.0030 h4         1 MZY       0.237000
      8 H2           2.7220    -1.3820     0.0070 h4         1 MZY       0.237000
      9 H3           0.2650     2.0450     0.0090 hn         1 MZY       0.483000
     10 H4           0.2080    -2.0120     0.0150 hn         1 MZY       0.483000
@<TRIPOS>BOND
     1     1     2 2   
     2     2     3 1   
     3     2     6 1   
     4     3     4 1   
     5     3     9 1   
     6     4     5 2   
     7     4     7 1   
     8     5     6 1   
     9     5     8 1   
    10     6    10 1   
@<TRIPOS>SUBSTRUCTURE
     1 MZY         1 TEMP              0 ****  ****    0 ROOT
