@<TRIPOS>MOLECULE
MZZ
   23    24     1     0     0
SMALL
bcc


@<TRIPOS>ATOM
      1 C1          -3.1950     0.3960     0.0860 ca         1 MZZ       0.224600
      2 C2          -2.8630    -0.8450    -0.4910 ca         1 MZZ      -0.231500
      3 C3          -1.5600    -1.2810    -0.5080 ca         1 MZZ      -0.021500
      4 C4          -0.5220    -0.4970     0.0140 ca         1 MZZ      -0.240600
      5 C5          -0.8540     0.7310     0.5990 ca         1 MZZ      -0.021500
      6 C6          -2.1590     1.1690     0.6420 ca         1 MZZ      -0.231500
      7 N7          -4.4810     0.8140     0.1410 nv         1 MZZ      -0.850200
      8 C8           0.8350    -1.0400     0.0020 c          1 MZZ       0.608500
      9 N9           1.8990    -0.1120    -0.0540 n          1 MZZ      -0.225000
     10 O12          1.0960    -2.2200     0.0350 o          1 MZZ      -0.524100
     11 C17          3.1920    -0.3690     0.3510 cc         1 MZZ      -0.223600
     12 C18          3.9030     0.7340     0.0090 cd         1 MZZ       0.290200
     13 N19          3.0960     1.6520    -0.6210 nd         1 MZZ      -0.667000
     14 C20          1.9130     1.1240    -0.6440 cc         1 MZZ       0.412400
     15 H2          -3.6430    -1.4590    -0.9230 ha         1 MZZ       0.138000
     16 H3          -1.3330    -2.2400    -0.9560 ha         1 MZZ       0.145500
     17 H5          -0.0950     1.3460     1.0630 ha         1 MZZ       0.145500
     18 H6          -2.3920     2.1150     1.1130 ha         1 MZZ       0.138000
     19 HN7         -5.1660     0.3680    -0.4450 hn         1 MZZ       0.422300
     20 HN7A        -4.6710     1.7770     0.3590 hn         1 MZZ       0.422300
     21 H17          3.4720    -1.2800     0.8500 h4         1 MZZ       0.189000
     22 H18          4.9510     0.9230     0.1810 h4         1 MZZ       0.039100
     23 H20          1.0370     1.5560    -1.1010 h5         1 MZZ       0.060100
@<TRIPOS>BOND
     1     1     2 ar  
     2     1     6 ar  
     3     1     7 1   
     4     2     3 ar  
     5     2    15 1   
     6     3     4 ar  
     7     3    16 1   
     8     4     5 ar  
     9     4     8 1   
    10     5     6 ar  
    11     5    17 1   
    12     6    18 1   
    13     7    19 1   
    14     7    20 1   
    15     8     9 1   
    16     8    10 2   
    17     9    11 1   
    18     9    14 1   
    19    11    12 2   
    20    11    21 1   
    21    12    13 1   
    22    12    22 1   
    23    13    14 2   
    24    14    23 1   
@<TRIPOS>SUBSTRUCTURE
     1 MZZ         1 TEMP              0 ****  ****    0 ROOT
