@<TRIPOS>MOLECULE
MZZ
   23    24     1     0     0
SMALL
No Charge or Current Charge


@<TRIPOS>ATOM
      1 C1          -3.2170     0.3920     0.0960 ca         1 MZZ       0.363000
      2 C2          -2.9200    -0.8510    -0.4710 ca         1 MZZ      -0.213500
      3 C3          -1.5920    -1.3080    -0.5200 ca         1 MZZ      -0.003500
      4 C4          -0.5430    -0.5110    -0.0120 ca         1 MZZ      -0.240600
      5 C5          -0.8580     0.7340     0.5810 ca         1 MZZ      -0.003500
      6 C6          -2.1900     1.1790     0.6250 ca         1 MZZ      -0.213500
      7 N7          -4.5070     0.8310     0.1430 nv         1 MZZ      -1.099000
      8 C8           0.8740    -1.0420    -0.0680 c          1 MZZ       0.608500
      9 N9           1.9410    -0.1230    -0.0620 n          1 MZZ      -0.174300
     10 O12          1.0870    -2.2460     0.0060 o          1 MZZ      -0.524100
     11 C17          3.2260    -0.3380     0.3510 cc         1 MZZ      -0.191000
     12 C18          3.9800     0.7710     0.0620 cd         1 MZZ       0.224900
     13 N19          3.1560     1.6990    -0.5910 nd         1 MZZ      -0.667000
     14 C20          1.9610     1.1080    -0.6520 cc         1 MZZ       0.412400
     15 H2          -3.7160    -1.4710    -0.8740 ha         1 MZZ       0.120000
     16 H3          -1.3800    -2.2790    -0.9640 ha         1 MZZ       0.127500
     17 H5          -0.0860     1.3530     1.0340 ha         1 MZZ       0.127500
     18 H6          -2.4200     2.1380     1.0830 ha         1 MZZ       0.120000
     19 HN7         -5.2160     0.3450    -0.4040 hn         1 MZZ       0.477500
     20 HN7A        -4.6960     1.8020     0.3820 hn         1 MZZ       0.477500
     21 H17          3.4740    -1.2790     0.8270 h4         1 MZZ       0.171000
     22 H18          5.0300     0.9520     0.2580 h4         1 MZZ       0.039100
     23 H20          1.0730     1.5070    -1.1300 h5         1 MZZ       0.060100
@<TRIPOS>BOND
     1     1     2 ar  
     2     1     6 ar  
     3     1     7 1   
     4     2     3 ar  
     5     2    15 1   
     6     3     4 ar  
     7     3    16 1   
     8     4     5 ar  
     9     4     8 1   
    10     5     6 ar  
    11     5    17 1   
    12     6    18 1   
    13     7    19 1   
    14     7    20 1   
    15     8     9 1   
    16     8    10 2   
    17     9    11 1   
    18     9    14 1   
    19    11    12 2   
    20    11    21 1   
    21    12    13 1   
    22    12    22 1   
    23    13    14 2   
    24    14    23 1   
@<TRIPOS>SUBSTRUCTURE
     1 MZZ         1 TEMP              0 ****  ****    0 ROOT
