@<TRIPOS>MOLECULE
B00
   33    35     1     0     0
SMALL
bcc


@<TRIPOS>ATOM
      1 O           -3.3960    -0.7120     1.9310 o          1 B00      -0.634500
      2 C1          -2.5280    -0.6330     1.0680 c          1 B00       0.723700
      3 N2          -2.5400     0.4410     0.1570 n          1 B00      -0.406300
      4 C5          -3.6040     1.4300     0.2360 c3         1 B00       0.059300
      5 C4          -1.5780     0.5590    -0.7990 cc         1 B00       0.726800
      6 N3          -1.6460     1.6010    -1.6460 nv         1 B00      -0.924800
      7 N1          -0.6140    -0.3090    -0.9710 nd         1 B00      -0.729300
      8 C3          -0.5480    -1.3500    -0.1260 cd         1 B00       0.275400
      9 C2          -1.4560    -1.5490     0.8780 cc         1 B00      -0.371200
     10 C6           0.5850    -2.2790    -0.2990 cx         1 B00      -0.095500
     11 C14          1.4180    -2.2510    -1.5470 cx         1 B00      -0.091400
     12 C7           2.0080    -1.7340    -0.2840 cx         1 B00      -0.061400
     13 C8           2.2830    -0.2930    -0.0350 ca         1 B00      -0.040300
     14 C13          2.3330     0.1670     1.2800 ca         1 B00      -0.112500
     15 C12          2.6010     1.5000     1.5590 ca         1 B00      -0.135000
     16 C11          2.8250     2.3960     0.5220 ca         1 B00      -0.132000
     17 C10          2.7840     1.9470    -0.7910 ca         1 B00      -0.135000
     18 C9           2.5150     0.6120    -1.0650 ca         1 B00      -0.112500
     19 H1          -4.3020     1.1350     1.0100 h1         1 B00       0.057033
     20 H2          -3.2070     2.4130     0.4890 h1         1 B00       0.057033
     21 H3          -4.1390     1.4900    -0.7110 h1         1 B00       0.057033
     22 H4          -2.1640     2.4330    -1.4210 hn         1 B00       0.439800
     23 H5          -0.8350     1.7410    -2.2260 hn         1 B00       0.439800
     24 H6          -1.3780    -2.3920     1.5510 ha         1 B00       0.163000
     25 H7           0.4600    -3.2360     0.1940 hc         1 B00       0.089700
     26 H8           1.7750    -3.1970    -1.9310 hc         1 B00       0.082700
     27 H9           1.1280    -1.5320    -2.3020 hc         1 B00       0.082700
     28 H10          2.7030    -2.4000     0.2190 hc         1 B00       0.082700
     29 H11          2.1580    -0.5270     2.0930 ha         1 B00       0.131500
     30 H12          2.6360     1.8380     2.5870 ha         1 B00       0.127500
     31 H13          3.0340     3.4370     0.7360 ha         1 B00       0.127000
     32 H14          2.9600     2.6370    -1.6070 ha         1 B00       0.127500
     33 H15          2.4830     0.2740    -2.0930 ha         1 B00       0.131500
@<TRIPOS>BOND
     1     1     2 2   
     2     2     3 1   
     3     2     9 1   
     4     3     4 1   
     5     3     5 1   
     6     4    19 1   
     7     4    20 1   
     8     4    21 1   
     9     5     6 1   
    10     5     7 2   
    11     6    22 1   
    12     6    23 1   
    13     7     8 1   
    14     8     9 2   
    15     8    10 1   
    16     9    24 1   
    17    10    11 1   
    18    10    12 1   
    19    10    25 1   
    20    11    12 1   
    21    11    26 1   
    22    11    27 1   
    23    12    13 1   
    24    12    28 1   
    25    13    14 ar  
    26    13    18 ar  
    27    14    15 ar  
    28    14    29 1   
    29    15    16 ar  
    30    15    30 1   
    31    16    17 ar  
    32    16    31 1   
    33    17    18 ar  
    34    17    32 1   
    35    18    33 1   
@<TRIPOS>SUBSTRUCTURE
     1 B00         1 TEMP              0 ****  ****    0 ROOT
