@<TRIPOS>MOLECULE
B00
   33    35     1     0     0
SMALL
No Charge or Current Charge


@<TRIPOS>ATOM
      1 O           -2.1460     0.6280     2.2790 o          1 B00      -0.559000
      2 C1          -1.9170     0.2410     1.1430 c          1 B00       0.581200
      3 N2          -2.6270     0.6500     0.0270 n          1 B00      -0.339300
      4 C5          -3.7600     1.6020     0.1980 c3         1 B00       0.059300
      5 C4          -2.2620     0.1460    -1.2000 cc         1 B00       0.726800
      6 N3          -2.9040     0.5530    -2.2900 nv         1 B00      -1.035200
      7 N1          -1.3110    -0.7050    -1.4860 nd         1 B00      -0.729300
      8 C3          -0.5550    -1.1560    -0.4110 cd         1 B00       0.275400
      9 C2          -0.8630    -0.7010     0.8440 cc         1 B00      -0.421200
     10 C6           0.5520    -2.1230    -0.6470 cx         1 B00      -0.095500
     11 C14          1.4920    -1.9520    -1.8210 cx         1 B00      -0.091400
     12 C7           2.0040    -1.7470    -0.4120 cx         1 B00      -0.061400
     13 C8           2.3980    -0.4010     0.1440 ca         1 B00      -0.040300
     14 C13          2.4380    -0.2210     1.5410 ca         1 B00      -0.094500
     15 C12          2.7980     1.0200     2.0920 ca         1 B00      -0.117000
     16 C11          3.1320     2.0930     1.2490 ca         1 B00      -0.114000
     17 C10          3.1090     1.9200    -0.1440 ca         1 B00      -0.117000
     18 C9           2.7470     0.6780    -0.6960 ca         1 B00      -0.094500
     19 H1          -4.0900     1.6500     1.2430 h1         1 B00       0.057033
     20 H2          -3.4490     2.6060    -0.1180 h1         1 B00       0.057033
     21 H3          -4.6190     1.2810    -0.4050 h1         1 B00       0.057033
     22 H4          -3.2680     1.4950    -2.2640 hn         1 B00       0.495000
     23 H5          -2.4330     0.2910    -3.1450 hn         1 B00       0.495000
     24 H6          -0.3040    -1.0390     1.7060 ha         1 B00       0.213000
     25 H7           0.2640    -3.1440    -0.4100 hc         1 B00       0.089700
     26 H8           1.8090    -2.8480    -2.3480 hc         1 B00       0.082700
     27 H9           1.3380    -1.0870    -2.4600 hc         1 B00       0.082700
     28 H10          2.6450    -2.5360    -0.0250 hc         1 B00       0.082700
     29 H11          2.1850    -1.0480     2.2020 ha         1 B00       0.113500
     30 H12          2.8210     1.1500     3.1720 ha         1 B00       0.109500
     31 H13          3.4120     3.0540     1.6750 ha         1 B00       0.109000
     32 H14          3.3740     2.7470    -0.7990 ha         1 B00       0.109500
     33 H15          2.7460     0.5620    -1.7760 ha         1 B00       0.113500
@<TRIPOS>BOND
     1     1     2 2   
     2     2     3 1   
     3     2     9 1   
     4     3     4 1   
     5     3     5 1   
     6     4    19 1   
     7     4    20 1   
     8     4    21 1   
     9     5     6 1   
    10     5     7 2   
    11     6    22 1   
    12     6    23 1   
    13     7     8 1   
    14     8     9 2   
    15     8    10 1   
    16     9    24 1   
    17    10    11 1   
    18    10    12 1   
    19    10    25 1   
    20    11    12 1   
    21    11    26 1   
    22    11    27 1   
    23    12    13 1   
    24    12    28 1   
    25    13    14 ar  
    26    13    18 ar  
    27    14    15 ar  
    28    14    29 1   
    29    15    16 ar  
    30    15    30 1   
    31    16    17 ar  
    32    16    31 1   
    33    17    18 ar  
    34    17    32 1   
    35    18    33 1   
@<TRIPOS>SUBSTRUCTURE
     1 B00         1 TEMP              0 ****  ****    0 ROOT
