@<TRIPOS>MOLECULE
B01
   50    52     1     0     0
SMALL
No Charge or Current Charge


@<TRIPOS>ATOM
      1 N21         -3.8380     1.7410    -1.5710 n8         1 B01      -0.984200
      2 C8          -3.4980     0.6420    -0.5970 c3         1 B01       0.102500
      3 C9          -1.9690     0.5290    -0.2290 c          1 B01       0.566100
      4 O25         -1.2570     1.5290    -0.1950 o          1 B01      -0.616100
      5 C7          -4.3560     0.7700     0.6920 c3         1 B01      -0.024100
      6 C6          -5.8480     0.5380     0.4620 ca         1 B01      -0.069300
      7 C1          -6.3300    -0.7600     0.2000 ca         1 B01      -0.098000
      8 C5          -6.7580     1.6120     0.5260 ca         1 B01      -0.098000
      9 C2          -7.7040    -0.9810    -0.0020 ca         1 B01      -0.111500
     10 C4          -8.1320     1.3910     0.3240 ca         1 B01      -0.111500
     11 C3          -8.6050     0.0950     0.0600 ca         1 B01      -0.110000
     12 N22         -1.4170    -0.7450     0.0470 n          1 B01      -0.396800
     13 C10          0.0380    -0.9500     0.3150 c5         1 B01       0.031700
     14 C11          1.0110    -0.4350    -0.7970 c          1 B01       0.607100
     15 O26          0.7590    -0.2250    -1.9790 o          1 B01      -0.608100
     16 C14          0.1310    -2.5080     0.3560 c5         1 B01      -0.086400
     17 C15         -1.2480    -2.9050     0.9330 c5         1 B01      -0.094400
     18 C16         -2.2020    -1.9970     0.1200 c5         1 B01       0.107000
     19 C12          3.4390     0.2300    -1.0040 c3         1 B01       0.053700
     20 C13          4.7170     0.3450    -0.1630 ca         1 B01       0.350300
     21 C17          5.7640     0.0780     1.8990 ca         1 B01       0.358900
     22 C18          6.9870     0.5350     1.3900 ca         1 B01      -0.161000
     23 C19          7.0580     0.9080     0.0430 ca         1 B01       0.159000
     24 C20          5.9060     0.8120    -0.7470 ca         1 B01      -0.154000
     25 N23          2.2620    -0.2430    -0.2560 ns         1 B01      -0.490900
     26 N24          4.6450    -0.0180     1.1440 nb         1 B01      -0.691000
     27 Cl27         8.5680     1.4870    -0.6460 cl         1 B01      -0.179000
     28 HN21        -3.4650     2.6250    -1.2040 hn         1 B01       0.410500
     29 HN2A        -3.2920     1.6080    -2.4320 hn         1 B01       0.410500
     30 H8          -3.7710    -0.3030    -1.0850 h1         1 B01       0.072700
     31 H7          -4.1840     1.7580     1.1380 hc         1 B01       0.053200
     32 H7A         -3.9980     0.0520     1.4390 hc         1 B01       0.053200
     33 H1          -5.6410    -1.6010     0.1530 ha         1 B01       0.108000
     34 H5          -6.4020     2.6190     0.7280 ha         1 B01       0.108000
     35 H2          -8.0690    -1.9850    -0.2050 ha         1 B01       0.110000
     36 H4          -8.8290     2.2250     0.3730 ha         1 B01       0.110000
     37 H3          -9.6690    -0.0760    -0.0960 ha         1 B01       0.110000
     38 H10          0.3110    -0.5030     1.2800 h1         1 B01       0.066700
     39 H14          0.2640    -2.9300    -0.6480 hc         1 B01       0.064200
     40 H14A         0.9660    -2.8630     0.9700 hc         1 B01       0.064200
     41 H15         -1.4730    -3.9700     0.8050 hc         1 B01       0.056700
     42 H15A        -1.3080    -2.6820     2.0050 hc         1 B01       0.056700
     43 H16         -2.3830    -2.4000    -0.8860 h1         1 B01       0.052200
     44 H16A        -3.1660    -1.8770     0.6290 h1         1 B01       0.052200
     45 H12          3.2090     1.2140    -1.4320 h1         1 B01       0.065700
     46 H12A         3.6270    -0.4630    -1.8350 h1         1 B01       0.065700
     47 H17          5.6740    -0.2200     2.9430 h4         1 B01       0.025100
     48 H18          7.8600     0.5960     2.0320 ha         1 B01       0.142000
     49 H20          5.9310     1.0950    -1.7950 ha         1 B01       0.144000
     50 HN23         2.3870    -0.4470     0.7310 hn         1 B01       0.345500
@<TRIPOS>BOND
     1     1     2 1   
     2     1    28 1   
     3     1    29 1   
     4     2     3 1   
     5     2     5 1   
     6     2    30 1   
     7     3     4 2   
     8     3    12 1   
     9     5     6 1   
    10     5    31 1   
    11     5    32 1   
    12     6     7 ar  
    13     6     8 ar  
    14     7     9 ar  
    15     7    33 1   
    16     8    10 ar  
    17     8    34 1   
    18     9    11 ar  
    19     9    35 1   
    20    10    11 ar  
    21    10    36 1   
    22    11    37 1   
    23    12    13 1   
    24    12    18 1   
    25    13    14 1   
    26    13    16 1   
    27    13    38 1   
    28    14    15 2   
    29    14    25 1   
    30    16    17 1   
    31    16    39 1   
    32    16    40 1   
    33    17    18 1   
    34    17    41 1   
    35    17    42 1   
    36    18    43 1   
    37    18    44 1   
    38    19    20 1   
    39    19    25 1   
    40    19    45 1   
    41    19    46 1   
    42    20    24 ar  
    43    20    26 ar  
    44    21    22 ar  
    45    21    26 ar  
    46    21    47 1   
    47    22    23 ar  
    48    22    48 1   
    49    23    24 ar  
    50    23    27 1   
    51    24    49 1   
    52    25    50 1   
@<TRIPOS>SUBSTRUCTURE
     1 B01         1 TEMP              0 ****  ****    0 ROOT
