@<TRIPOS>MOLECULE
B01
   50    52     1     0     0
SMALL
bcc


@<TRIPOS>ATOM
      1 N21         -3.4080     1.5250    -1.3660 n8         1 B01      -0.873800
      2 C8          -3.2360     0.3720    -0.5140 c3         1 B01       0.102500
      3 C9          -1.7720     0.1030    -0.1590 c          1 B01       0.633100
      4 O25         -0.9940     1.0320     0.0300 o          1 B01      -0.616100
      5 C7          -4.0110     0.5660     0.8010 c3         1 B01      -0.024100
      6 C6          -5.4940     0.6330     0.5850 ca         1 B01      -0.069300
      7 C1          -6.2510    -0.5350     0.5420 ca         1 B01      -0.116000
      8 C5          -6.1430     1.8510     0.4000 ca         1 B01      -0.116000
      9 C2          -7.6210    -0.4910     0.3180 ca         1 B01      -0.129500
     10 C4          -7.5120     1.9020     0.1800 ca         1 B01      -0.129500
     11 C3          -8.2560     0.7300     0.1360 ca         1 B01      -0.128000
     12 N22         -1.3790    -1.1730    -0.0330 n          1 B01      -0.463800
     13 C10          0.0060    -1.4830     0.2760 c5         1 B01       0.031700
     14 C11          0.9560    -0.8310    -0.7210 c          1 B01       0.674100
     15 O26          0.7110    -0.7970    -1.9170 o          1 B01      -0.608100
     16 C14          0.0620    -3.0130     0.1700 c5         1 B01      -0.086400
     17 C15         -1.3640    -3.4400     0.4980 c5         1 B01      -0.094400
     18 C16         -2.2040    -2.3680    -0.1790 c5         1 B01       0.107000
     19 C12          3.1330     0.2200    -0.9830 c3         1 B01       0.053700
     20 C13          4.3180     0.5850    -0.1270 ca         1 B01       0.415600
     21 C17          5.2490     0.7530     1.9490 ca         1 B01       0.424200
     22 C18          6.4340     1.2650     1.4540 ca         1 B01      -0.244300
     23 C19          6.5260     1.4320     0.0800 ca         1 B01       0.067400
     24 C20          5.4640     1.0920    -0.7340 ca         1 B01      -0.237300
     25 N23          2.0970    -0.3820    -0.1900 ns         1 B01      -0.557900
     26 N24          4.2150     0.4210     1.1820 nb         1 B01      -0.691000
     27 CL27         7.9700     2.0670    -0.6130 cl         1 B01      -0.087400
     28 HN21        -2.9310     2.3220    -0.9620 hn         1 B01       0.355300
     29 HN2A        -2.9710     1.3590    -2.2640 hn         1 B01       0.355300
     30 H8          -3.6560    -0.4890    -1.0410 h1         1 B01       0.072700
     31 H7          -3.6520     1.4820     1.2800 hc         1 B01       0.053200
     32 H7A         -3.7780    -0.2520     1.4880 hc         1 B01       0.053200
     33 H1          -5.7660    -1.4940     0.6950 ha         1 B01       0.126000
     34 H5          -5.5700     2.7700     0.4370 ha         1 B01       0.126000
     35 H2          -8.1930    -1.4100     0.2890 ha         1 B01       0.128000
     36 H4          -8.0000     2.8590     0.0410 ha         1 B01       0.128000
     37 H3          -9.3250     0.7680    -0.0330 ha         1 B01       0.128000
     38 H10          0.2480    -1.1630     1.2950 h1         1 B01       0.066700
     39 H14          0.3120    -3.3120    -0.8500 hc         1 B01       0.064200
     40 H14A         0.8090    -3.4380     0.8380 hc         1 B01       0.064200
     41 H15         -1.6030    -4.4390     0.1360 hc         1 B01       0.056700
     42 H15A        -1.5310    -3.4220     1.5770 hc         1 B01       0.056700
     43 H16         -2.3710    -2.6020    -1.2340 h1         1 B01       0.052200
     44 H16A        -3.1760    -2.2500     0.2990 h1         1 B01       0.052200
     45 H12          2.7690     1.1240    -1.4820 h1         1 B01       0.065700
     46 H12A         3.4590    -0.4560    -1.7780 h1         1 B01       0.065700
     47 H17          5.1290     0.6040     3.0150 h4         1 B01       0.025100
     48 H18          7.2470     1.5220     2.1170 ha         1 B01       0.160000
     49 H20          5.5160     1.2120    -1.8080 ha         1 B01       0.162000
     50 HN23         2.2390    -0.3840     0.8100 hn         1 B01       0.345500
@<TRIPOS>BOND
     1     1     2 1   
     2     1    28 1   
     3     1    29 1   
     4     2     3 1   
     5     2     5 1   
     6     2    30 1   
     7     3     4 2   
     8     3    12 1   
     9     5     6 1   
    10     5    31 1   
    11     5    32 1   
    12     6     7 ar  
    13     6     8 ar  
    14     7     9 ar  
    15     7    33 1   
    16     8    10 ar  
    17     8    34 1   
    18     9    11 ar  
    19     9    35 1   
    20    10    11 ar  
    21    10    36 1   
    22    11    37 1   
    23    12    13 1   
    24    12    18 1   
    25    13    14 1   
    26    13    16 1   
    27    13    38 1   
    28    14    15 2   
    29    14    25 1   
    30    16    17 1   
    31    16    39 1   
    32    16    40 1   
    33    17    18 1   
    34    17    41 1   
    35    17    42 1   
    36    18    43 1   
    37    18    44 1   
    38    19    20 1   
    39    19    25 1   
    40    19    45 1   
    41    19    46 1   
    42    20    24 ar  
    43    20    26 ar  
    44    21    22 ar  
    45    21    26 ar  
    46    21    47 1   
    47    22    23 ar  
    48    22    48 1   
    49    23    24 ar  
    50    23    27 1   
    51    24    49 1   
    52    25    50 1   
@<TRIPOS>SUBSTRUCTURE
     1 B01         1 TEMP              0 ****  ****    0 ROOT
