@<TRIPOS>MOLECULE
B02
   46    49     1     0     0
SMALL
No Charge or Current Charge


@<TRIPOS>ATOM
      1 O            1.7120     1.7300    -2.5360 o          1 B02      -0.560000
      2 C1           2.2940     1.3630    -1.5260 c          1 B02       0.581200
      3 N2           2.8620     2.2240    -0.6030 n          1 B02      -0.340300
      4 C5           2.7920     3.6920    -0.8430 c3         1 B02       0.058300
      5 C4           3.4820     1.6820     0.4990 cc         1 B02       0.732800
      6 N3           4.0010     2.4870     1.4180 nv         1 B02      -1.041200
      7 N1           3.6320     0.4230     0.8190 nd         1 B02      -0.731300
      8 C3           3.0830    -0.4990    -0.0640 cd         1 B02       0.275400
      9 C2           2.4530    -0.0330    -1.1890 cc         1 B02      -0.425200
     10 C6           3.2000    -1.9540     0.2250 cx         1 B02      -0.094500
     11 C21          2.9940    -2.4840     1.6280 cx         1 B02      -0.089400
     12 C7           1.9820    -2.8000     0.5490 cx         1 B02      -0.063400
     13 C8           0.5870    -2.2270     0.5200 ca         1 B02      -0.034300
     14 C13         -0.0380    -1.7330     1.6820 ca         1 B02      -0.097500
     15 C12         -1.3370    -1.1990     1.6190 ca         1 B02      -0.105000
     16 C11         -2.0530    -1.1470     0.3970 cp         1 B02      -0.041000
     17 C10         -1.4160    -1.6620    -0.7590 ca         1 B02      -0.105000
     18 C9          -0.1180    -2.1980    -0.6960 ca         1 B02      -0.097500
     19 C14         -3.4350    -0.5740     0.3310 cp         1 B02      -0.030000
     20 C19         -4.3460    -0.7300     1.4050 ca         1 B02      -0.104000
     21 C18         -5.6420    -0.1910     1.3410 ca         1 B02      -0.108000
     22 C17         -6.0540     0.5180     0.2020 ca         1 B02      -0.109000
     23 C16         -5.1720     0.6880    -0.8810 ca         1 B02      -0.076300
     24 C20         -5.6120     1.4610    -2.1150 c3         1 B02      -0.046800
     25 C15         -3.8750     0.1460    -0.8100 ca         1 B02      -0.105000
     26 H1           2.5470     3.9170    -1.8880 h1         1 B02       0.057033
     27 H2           2.0220     4.1350    -0.1990 h1         1 B02       0.057033
     28 H3           3.7610     4.1580    -0.6230 h1         1 B02       0.057033
     29 H4           3.5360     3.3760     1.5400 hn         1 B02       0.499000
     30 H5           4.2420     2.0020     2.2720 hn         1 B02       0.499000
     31 H6           2.0230    -0.7200    -1.9040 ha         1 B02       0.213000
     32 H7           3.9880    -2.4280    -0.3540 hc         1 B02       0.090700
     33 H8           3.6430    -3.2890     1.9620 hc         1 B02       0.082700
     34 H9           2.7380    -1.7640     2.4000 hc         1 B02       0.082700
     35 H10          1.9960    -3.8210     0.1740 hc         1 B02       0.084700
     36 H11          0.4740    -1.7580     2.6400 ha         1 B02       0.115500
     37 H12         -1.7860    -0.8090     2.5290 ha         1 B02       0.113000
     38 H13         -1.9360    -1.6600    -1.7130 ha         1 B02       0.113000
     39 H14          0.3420    -2.5910    -1.6000 ha         1 B02       0.115500
     40 H15         -4.0520    -1.2860     2.2920 ha         1 B02       0.115000
     41 H16         -6.3270    -0.3240     2.1760 ha         1 B02       0.113000
     42 H17         -7.0580     0.9340     0.1610 ha         1 B02       0.111000
     43 H18         -5.3290     2.5170    -2.0350 hc         1 B02       0.042033
     44 H19         -5.1500     1.0580    -3.0240 hc         1 B02       0.042033
     45 H20         -6.6990     1.4150    -2.2510 hc         1 B02       0.042033
     46 H21         -3.1940     0.2970    -1.6440 ha         1 B02       0.111000
@<TRIPOS>BOND
     1     1     2 2   
     2     2     3 1   
     3     2     9 1   
     4     3     4 1   
     5     3     5 1   
     6     4    26 1   
     7     4    27 1   
     8     4    28 1   
     9     5     6 1   
    10     5     7 2   
    11     6    29 1   
    12     6    30 1   
    13     7     8 1   
    14     8     9 2   
    15     8    10 1   
    16     9    31 1   
    17    10    11 1   
    18    10    12 1   
    19    10    32 1   
    20    11    12 1   
    21    11    33 1   
    22    11    34 1   
    23    12    13 1   
    24    12    35 1   
    25    13    14 ar  
    26    13    18 ar  
    27    14    15 ar  
    28    14    36 1   
    29    15    16 ar  
    30    15    37 1   
    31    16    17 ar  
    32    16    19 1   
    33    17    18 ar  
    34    17    38 1   
    35    18    39 1   
    36    19    20 ar  
    37    19    25 ar  
    38    20    21 ar  
    39    20    40 1   
    40    21    22 ar  
    41    21    41 1   
    42    22    23 ar  
    43    22    42 1   
    44    23    24 1   
    45    23    25 ar  
    46    24    43 1   
    47    24    44 1   
    48    24    45 1   
    49    25    46 1   
@<TRIPOS>SUBSTRUCTURE
     1 B02         1 TEMP              0 ****  ****    0 ROOT
