@<TRIPOS>MOLECULE
B02
   46    49     1     0     0
SMALL
abcg2


@<TRIPOS>ATOM
      1 O            3.5230     1.6220    -2.9470 o          1 B02      -0.560000
      2 C1           3.2160     1.1310    -1.8660 c          1 B02       0.581200
      3 N2           2.5310     1.9070    -0.9100 n          1 B02      -0.340300
      4 C5           2.1940     3.2860    -1.2270 c3         1 B02       0.058300
      5 C4           2.1930     1.3860     0.3010 cc         1 B02       0.732800
      6 N3           1.5750     2.1810     1.1890 nv         1 B02      -1.041200
      7 N1           2.4710     0.1600     0.6680 nd         1 B02      -0.731300
      8 C3           3.0850    -0.6380    -0.2200 cd         1 B02       0.275400
      9 C2           3.4780    -0.2060    -1.4580 cc         1 B02      -0.425200
     10 C6           3.2840    -2.0460     0.1730 cx         1 B02      -0.094500
     11 C21          3.1210    -2.4820     1.5990 cx         1 B02      -0.089400
     12 C7           2.0710    -2.8550     0.6150 cx         1 B02      -0.063400
     13 C8           0.7140    -2.2450     0.6140 ca         1 B02      -0.034300
     14 C13          0.0700    -1.8670     1.7850 ca         1 B02      -0.097500
     15 C12         -1.1920    -1.2940     1.7530 ca         1 B02      -0.105000
     16 C11         -1.8510    -1.0760     0.5440 cp         1 B02      -0.041000
     17 C10         -1.2080    -1.4690    -0.6310 ca         1 B02      -0.105000
     18 C9           0.0500    -2.0470    -0.5950 ca         1 B02      -0.097500
     19 C14         -3.1850    -0.4430     0.5070 cp         1 B02      -0.030000
     20 C19         -4.1410    -0.7280     1.4820 ca         1 B02      -0.104000
     21 C18         -5.3900    -0.1280     1.4320 ca         1 B02      -0.108000
     22 C17         -5.7010     0.7650     0.4160 ca         1 B02      -0.109000
     23 C16         -4.7630     1.0710    -0.5670 ca         1 B02      -0.076300
     24 C20         -5.0720     2.0650    -1.6500 c3         1 B02      -0.046800
     25 C15         -3.5150     0.4570    -0.5070 ca         1 B02      -0.105000
     26 H1           2.5800     3.5210    -2.2110 h1         1 B02       0.057033
     27 H2           1.1130     3.4290    -1.2370 h1         1 B02       0.057033
     28 H3           2.6440     3.9670    -0.5060 h1         1 B02       0.057033
     29 H4           1.1350     3.0460     0.9290 hn         1 B02       0.499000
     30 H5           1.2000     1.7230     2.0030 hn         1 B02       0.499000
     31 H6           3.9790    -0.8640    -2.1540 ha         1 B02       0.213000
     32 H7           3.9990    -2.5850    -0.4360 hc         1 B02       0.090700
     33 H8           3.7830    -3.2590     1.9580 hc         1 B02       0.082700
     34 H9           2.8950    -1.7080     2.3220 hc         1 B02       0.082700
     35 H10          2.0950    -3.8820     0.2620 hc         1 B02       0.084700
     36 H11          0.5650    -2.0060     2.7380 ha         1 B02       0.115500
     37 H12         -1.6560    -0.9900     2.6830 ha         1 B02       0.113000
     38 H13         -1.7010    -1.3360    -1.5870 ha         1 B02       0.113000
     39 H14          0.5270    -2.3400    -1.5220 ha         1 B02       0.115500
     40 H15         -3.9200    -1.4390     2.2690 ha         1 B02       0.115000
     41 H16         -6.1310    -0.3660     2.1850 ha         1 B02       0.113000
     42 H17         -6.6810     1.2250     0.3870 ha         1 B02       0.111000
     43 H18         -4.7310     3.0630    -1.3710 hc         1 B02       0.042033
     44 H19         -4.5780     1.8040    -2.5850 hc         1 B02       0.042033
     45 H20         -6.1430     2.1300    -1.8400 hc         1 B02       0.042033
     46 H21         -2.7750     0.7000    -1.2610 ha         1 B02       0.111000
@<TRIPOS>BOND
     1     1     2 2   
     2     2     3 1   
     3     2     9 1   
     4     3     4 1   
     5     3     5 1   
     6     4    26 1   
     7     4    27 1   
     8     4    28 1   
     9     5     6 1   
    10     5     7 2   
    11     6    29 1   
    12     6    30 1   
    13     7     8 1   
    14     8     9 2   
    15     8    10 1   
    16     9    31 1   
    17    10    11 1   
    18    10    12 1   
    19    10    32 1   
    20    11    12 1   
    21    11    33 1   
    22    11    34 1   
    23    12    13 1   
    24    12    35 1   
    25    13    14 ar  
    26    13    18 ar  
    27    14    15 ar  
    28    14    36 1   
    29    15    16 ar  
    30    15    37 1   
    31    16    17 ar  
    32    16    19 1   
    33    17    18 ar  
    34    17    38 1   
    35    18    39 1   
    36    19    20 ar  
    37    19    25 ar  
    38    20    21 ar  
    39    20    40 1   
    40    21    22 ar  
    41    21    41 1   
    42    22    23 ar  
    43    22    42 1   
    44    23    24 1   
    45    23    25 ar  
    46    24    43 1   
    47    24    44 1   
    48    24    45 1   
    49    25    46 1   
@<TRIPOS>SUBSTRUCTURE
     1 B02         1 TEMP              0 ****  ****    0 ROOT
