@<TRIPOS>MOLECULE
B03
   50    52     1     0     0
SMALL
No Charge or Current Charge


@<TRIPOS>ATOM
      1 N10         -3.3300     1.8010    -1.3040 n8         1 B03      -0.979200
      2 C8          -2.8200     0.6300    -0.5080 c3         1 B03       0.099500
      3 C9          -1.2700     0.6230    -0.1930 c          1 B03       0.617100
      4 O12         -0.6280     1.6700    -0.1460 o          1 B03      -0.595100
      5 C7          -3.6520     0.4850     0.7940 c3         1 B03      -0.076100
      6 C4          -5.1480     0.3140     0.5400 ca         1 B03      -0.087300
      7 C3          -5.6370    -0.8820    -0.0210 ca         1 B03      -0.110000
      8 C5          -6.0520     1.3430     0.8700 ca         1 B03      -0.110000
      9 C2          -7.0140    -1.0450    -0.2560 ca         1 B03      -0.106000
     10 C6          -7.4290     1.1800     0.6350 ca         1 B03      -0.106000
     11 C1          -7.9100    -0.0130     0.0720 ca         1 B03      -0.109000
     12 N11         -0.6220    -0.6090     0.0620 n          1 B03      -0.400800
     13 C13          0.8260    -0.6850     0.4060 c5         1 B03       0.031700
     14 C17          1.7880    -0.4610    -0.8070 c          1 B03       0.594100
     15 O28          1.5010    -0.4300    -1.9980 o          1 B03      -0.603100
     16 C15          0.9300    -2.1570     0.9090 c5         1 B03      -0.083400
     17 C16         -0.0480    -2.8960    -0.0380 c5         1 B03      -0.094400
     18 C14         -1.2660    -1.9380    -0.0580 c5         1 B03       0.112000
     19 N18          3.0700    -0.2620    -0.3450 ns         1 B03      -0.497900
     20 C19          4.2430    -0.0130    -1.1990 c3         1 B03       0.054700
     21 C20          5.5680     0.0990    -0.4350 ca         1 B03       0.340300
     22 C22          6.7770     0.2600    -1.1390 ca         1 B03      -0.157000
     23 C23          7.9840     0.3620    -0.4270 ca         1 B03      -0.065000
     24 C24          7.9300     0.2980     0.9740 ca         1 B03      -0.166000
     25 C25          6.6860     0.1370     1.6060 ca         1 B03       0.348900
     26 N21          5.5210     0.0390     0.9230 nb         1 B03      -0.695000
     27 HN10        -4.3560     1.7980    -1.2610 hn         1 B03       0.407500
     28 HN1A        -3.0690     2.6680    -0.8200 hn         1 B03       0.407500
     29 H8          -3.0150    -0.2590    -1.1190 h1         1 B03       0.073700
     30 H7          -3.4670     1.3570     1.4340 hc         1 B03       0.058200
     31 H7A         -3.2870    -0.3770     1.3640 hc         1 B03       0.058200
     32 H3          -4.9510    -1.6870    -0.2750 ha         1 B03       0.110500
     33 H5          -5.6910     2.2710     1.3080 ha         1 B03       0.110500
     34 H2          -7.3850    -1.9700    -0.6900 ha         1 B03       0.113500
     35 H6          -8.1220     1.9790     0.8910 ha         1 B03       0.113500
     36 H1          -8.9750    -0.1390    -0.1100 ha         1 B03       0.114000
     37 H13          1.0920     0.0290     1.1980 h1         1 B03       0.080700
     38 H15          1.9490    -2.5600     0.8660 hc         1 B03       0.057200
     39 H15A         0.5970    -2.2370     1.9510 hc         1 B03       0.057200
     40 H16         -0.3110    -3.8980     0.3190 hc         1 B03       0.062200
     41 H16A         0.3790    -3.0100    -1.0420 hc         1 B03       0.062200
     42 H14         -1.9290    -2.1260     0.7960 h1         1 B03       0.045700
     43 H14A        -1.8430    -2.0500    -0.9840 h1         1 B03       0.045700
     44 HN18         3.2230    -0.2990     0.6580 hn         1 B03       0.344500
     45 H19          4.3250    -0.8310    -1.9270 h1         1 B03       0.063200
     46 H19A         4.0780     0.9180    -1.7570 h1         1 B03       0.063200
     47 H22          6.7750     0.3040    -2.2250 ha         1 B03       0.128000
     48 H23          8.9320     0.4860    -0.9460 ha         1 B03       0.121000
     49 H24          8.8360     0.3720     1.5690 ha         1 B03       0.126000
     50 H25          6.6180     0.0850     2.6920 h4         1 B03       0.019100
@<TRIPOS>BOND
     1     1     2 1   
     2     1    27 1   
     3     1    28 1   
     4     2     3 1   
     5     2     5 1   
     6     2    29 1   
     7     3     4 2   
     8     3    12 1   
     9     5     6 1   
    10     5    30 1   
    11     5    31 1   
    12     6     7 ar  
    13     6     8 ar  
    14     7     9 ar  
    15     7    32 1   
    16     8    10 ar  
    17     8    33 1   
    18     9    11 ar  
    19     9    34 1   
    20    10    11 ar  
    21    10    35 1   
    22    11    36 1   
    23    12    13 1   
    24    12    18 1   
    25    13    14 1   
    26    13    16 1   
    27    13    37 1   
    28    14    15 2   
    29    14    19 1   
    30    16    17 1   
    31    16    38 1   
    32    16    39 1   
    33    17    18 1   
    34    17    40 1   
    35    17    41 1   
    36    18    42 1   
    37    18    43 1   
    38    19    20 1   
    39    19    44 1   
    40    20    21 1   
    41    20    45 1   
    42    20    46 1   
    43    21    22 ar  
    44    21    26 ar  
    45    22    23 ar  
    46    22    47 1   
    47    23    24 ar  
    48    23    48 1   
    49    24    25 ar  
    50    24    49 1   
    51    25    26 ar  
    52    25    50 1   
@<TRIPOS>SUBSTRUCTURE
     1 B03         1 TEMP              0 ****  ****    0 ROOT
