@<TRIPOS>MOLECULE
B03
   50    52     1     0     0
SMALL
bcc


@<TRIPOS>ATOM
      1 N10         -2.7810     1.7020    -1.1030 n8         1 B03      -0.868800
      2 C8          -2.5800     0.4460    -0.4190 c3         1 B03       0.099500
      3 C9          -1.1110     0.3120    -0.0410 c          1 B03       0.684100
      4 O12         -0.4140     1.3010     0.1470 o          1 B03      -0.595100
      5 C7          -3.4260     0.2530     0.8650 c3         1 B03      -0.076100
      6 C4          -4.8970     0.3260     0.5760 ca         1 B03      -0.087300
      7 C3          -5.5800    -0.7980     0.1140 ca         1 B03      -0.128000
      8 C5          -5.6000     1.5200     0.7130 ca         1 B03      -0.128000
      9 C2          -6.9310    -0.7330    -0.1990 ca         1 B03      -0.124000
     10 C6          -6.9520     1.5910     0.4010 ca         1 B03      -0.124000
     11 C1          -7.6220     0.4640    -0.0570 ca         1 B03      -0.127000
     12 N11         -0.6300    -0.9290     0.1450 n          1 B03      -0.467800
     13 C13          0.7530    -1.1050     0.5360 c5         1 B03       0.031700
     14 C17          1.6850    -0.7080    -0.6060 c          1 B03       0.661100
     15 O28          1.3440    -0.7760    -1.7770 o          1 B03      -0.603100
     16 C15          0.8450    -2.6090     0.8240 c5         1 B03      -0.083400
     17 C16         -0.1680    -3.2150    -0.1400 c5         1 B03      -0.094400
     18 C14         -1.3000    -2.1930    -0.1510 c5         1 B03       0.112000
     19 N18          2.9110    -0.3410    -0.2190 ns         1 B03      -0.564900
     20 C19          3.9520    -0.0110    -1.1540 c3         1 B03       0.054700
     21 C20          5.2450     0.2820    -0.4380 ca         1 B03       0.405600
     22 C22          6.3920     0.5720    -1.1730 ca         1 B03      -0.240300
     23 C23          7.5640     0.8470    -0.4940 ca         1 B03      -0.083000
     24 C24          7.5580     0.8260     0.8960 ca         1 B03      -0.249300
     25 C25          6.3690     0.5280     1.5370 ca         1 B03       0.414200
     26 N21          5.2390     0.2630     0.8870 nb         1 B03      -0.695000
     27 HN10        -3.7500     1.7800    -1.3860 hn         1 B03       0.352300
     28 HN1A        -2.6010     2.4750    -0.4740 hn         1 B03       0.352300
     29 H8          -2.8480    -0.3500    -1.1200 h1         1 B03       0.073700
     30 H7          -3.1460     1.0250     1.5870 hc         1 B03       0.058200
     31 H7A         -3.1900    -0.7120     1.3210 hc         1 B03       0.058200
     32 H3          -5.0500    -1.7380     0.0030 ha         1 B03       0.128500
     33 H5          -5.0890     2.4030     1.0780 ha         1 B03       0.128500
     34 H2          -7.4440    -1.6190    -0.5500 ha         1 B03       0.131500
     35 H6          -7.4820     2.5270     0.5180 ha         1 B03       0.131500
     36 H1          -8.6760     0.5170    -0.2970 ha         1 B03       0.132000
     37 H13          0.9880    -0.5190     1.4270 h1         1 B03       0.080700
     38 H15          1.8550    -2.9980     0.6970 hc         1 B03       0.057200
     39 H15A         0.5480    -2.7920     1.8580 hc         1 B03       0.057200
     40 H16         -0.5150    -4.1990     0.1750 hc         1 B03       0.062200
     41 H16A         0.2610    -3.3160    -1.1370 hc         1 B03       0.062200
     42 H14         -2.0440    -2.4240     0.6160 h1         1 B03       0.045700
     43 H14A        -1.8100    -2.1620    -1.1140 h1         1 B03       0.045700
     44 HN18         3.1460    -0.2630     0.7610 hn         1 B03       0.344500
     45 H19          4.1090    -0.8310    -1.8610 h1         1 B03       0.063200
     46 H19A         3.6750     0.8610    -1.7550 h1         1 B03       0.063200
     47 H22          6.3590     0.5800    -2.2550 ha         1 B03       0.146000
     48 H23          8.4710     1.0770    -1.0380 ha         1 B03       0.139000
     49 H24          8.4510     1.0360     1.4670 ha         1 B03       0.144000
     50 H25          6.3190     0.5020     2.6190 h4         1 B03       0.019100
@<TRIPOS>BOND
     1     1     2 1   
     2     1    27 1   
     3     1    28 1   
     4     2     3 1   
     5     2     5 1   
     6     2    29 1   
     7     3     4 2   
     8     3    12 1   
     9     5     6 1   
    10     5    30 1   
    11     5    31 1   
    12     6     7 ar  
    13     6     8 ar  
    14     7     9 ar  
    15     7    32 1   
    16     8    10 ar  
    17     8    33 1   
    18     9    11 ar  
    19     9    34 1   
    20    10    11 ar  
    21    10    35 1   
    22    11    36 1   
    23    12    13 1   
    24    12    18 1   
    25    13    14 1   
    26    13    16 1   
    27    13    37 1   
    28    14    15 2   
    29    14    19 1   
    30    16    17 1   
    31    16    38 1   
    32    16    39 1   
    33    17    18 1   
    34    17    40 1   
    35    17    41 1   
    36    18    42 1   
    37    18    43 1   
    38    19    20 1   
    39    19    44 1   
    40    20    21 1   
    41    20    45 1   
    42    20    46 1   
    43    21    22 ar  
    44    21    26 ar  
    45    22    23 ar  
    46    22    47 1   
    47    23    24 ar  
    48    23    48 1   
    49    24    25 ar  
    50    24    49 1   
    51    25    26 ar  
    52    25    50 1   
@<TRIPOS>SUBSTRUCTURE
     1 B03         1 TEMP              0 ****  ****    0 ROOT
