@<TRIPOS>MOLECULE
B04
   54    56     1     0     0
SMALL
No Charge or Current Charge


@<TRIPOS>ATOM
      1 N4           3.6920    -1.9350    -1.3940 n8         1 B04      -0.971200
      2 C3           3.0880    -0.8650    -0.5190 c3         1 B04       0.105500
      3 C5           1.5960    -1.1260    -0.0800 c          1 B04       0.566100
      4 O7           1.1350    -2.2640    -0.0610 o          1 B04      -0.623100
      5 C2           3.9860    -0.6050     0.7220 c3         1 B04      -0.019100
      6 C1           5.3350     0.0220     0.3770 ca         1 B04      -0.081300
      7 C8           5.4080     1.3790     0.0010 ca         1 B04      -0.096500
      8 C12          6.5190    -0.7390     0.4460 ca         1 B04      -0.096500
      9 C9           6.6480     1.9650    -0.3070 ca         1 B04      -0.108500
     10 C11          7.7590    -0.1530     0.1370 ca         1 B04      -0.108500
     11 C10          7.8240     1.1990    -0.2400 ca         1 B04      -0.101000
     12 N6           0.7840    -0.0340     0.3060 n          1 B04      -0.398800
     13 C13         -0.6200    -0.2170     0.7670 c5         1 B04       0.034700
     14 C14         -1.6360    -0.5340    -0.3780 c          1 B04       0.596100
     15 O15         -1.4490    -0.4580    -1.5850 o          1 B04      -0.569100
     16 C19         -0.9160     1.1920     1.3680 c5         1 B04      -0.084400
     17 C20         -0.1640     2.1280     0.3880 c5         1 B04      -0.096400
     18 C21          1.1890     1.3910     0.2090 c5         1 B04       0.111000
     19 N16         -2.8360    -0.9380     0.1710 ns         1 B04      -0.523900
     20 C17         -4.0300    -1.3030    -0.6040 c3         1 B04       0.119300
     21 C18         -5.2480    -0.4790    -0.1850 ca         1 B04       0.003400
     22 C22         -6.1860    -1.0440     0.7060 ca         1 B04      -0.121000
     23 C23         -7.3190    -0.3160     1.1070 ca         1 B04       0.011000
     24 C24         -7.5160     0.9840     0.6140 ca         1 B04      -0.114000
     25 C25         -6.5770     1.5450    -0.2700 ca         1 B04      -0.066000
     26 N26         -5.4370     0.8340    -0.6660 na         1 B04       0.076300
     27 C27         -4.4360     1.4950    -1.5290 c3         1 B04       0.009900
     28 HN4          3.5880    -2.8390    -0.9160 hn         1 B04       0.410000
     29 HN4A         3.1040    -2.0560    -2.2280 hn         1 B04       0.410000
     30 H3           3.0760     0.0550    -1.1160 h1         1 B04       0.077700
     31 H2           4.1260    -1.5480     1.2660 hc         1 B04       0.051200
     32 H2A          3.4610     0.0550     1.4210 hc         1 B04       0.051200
     33 H8           4.5030     1.9810    -0.0500 ha         1 B04       0.106000
     34 H12          6.4790    -1.7870     0.7350 ha         1 B04       0.106000
     35 H9           6.6960     3.0120    -0.5970 ha         1 B04       0.115000
     36 H11          8.6690    -0.7460     0.1900 ha         1 B04       0.115000
     37 H10          8.7840     1.6530    -0.4790 ha         1 B04       0.117000
     38 H13         -0.6970    -1.0040     1.5290 h1         1 B04       0.082700
     39 H19         -1.9860     1.4220     1.4370 hc         1 B04       0.055700
     40 H19A        -0.5040     1.2780     2.3800 hc         1 B04       0.055700
     41 H20         -0.6950     2.2160    -0.5670 hc         1 B04       0.066200
     42 H20A        -0.0360     3.1420     0.7820 hc         1 B04       0.066200
     43 H21          1.8890     1.6540     1.0120 h1         1 B04       0.062700
     44 H21A         1.6510     1.6390    -0.7560 h1         1 B04       0.062700
     45 HN16        -2.8900    -0.9760     1.1840 hn         1 B04       0.328500
     46 H17         -3.8450    -1.1840    -1.6800 h1         1 B04       0.101700
     47 H17A        -4.2360    -2.3700    -0.4410 h1         1 B04       0.101700
     48 H22         -6.0400    -2.0530     1.0880 ha         1 B04       0.174000
     49 H23         -8.0410    -0.7570     1.7930 ha         1 B04       0.171000
     50 H24         -8.3940     1.5540     0.9150 ha         1 B04       0.179000
     51 H25         -6.7130     2.5530    -0.6640 h4         1 B04       0.183000
     52 H27         -4.2830     0.9080    -2.4430 h1         1 B04       0.098367
     53 H27A        -4.7750     2.4980    -1.8140 h1         1 B04       0.098367
     54 H27B        -3.4860     1.5880    -0.9900 h1         1 B04       0.098367
@<TRIPOS>BOND
     1     1     2 1   
     2     1    28 1   
     3     1    29 1   
     4     2     3 1   
     5     2     5 1   
     6     2    30 1   
     7     3     4 2   
     8     3    12 1   
     9     5     6 1   
    10     5    31 1   
    11     5    32 1   
    12     6     7 ar  
    13     6     8 ar  
    14     7     9 ar  
    15     7    33 1   
    16     8    10 ar  
    17     8    34 1   
    18     9    11 ar  
    19     9    35 1   
    20    10    11 ar  
    21    10    36 1   
    22    11    37 1   
    23    12    13 1   
    24    12    18 1   
    25    13    14 1   
    26    13    16 1   
    27    13    38 1   
    28    14    15 2   
    29    14    19 1   
    30    16    17 1   
    31    16    39 1   
    32    16    40 1   
    33    17    18 1   
    34    17    41 1   
    35    17    42 1   
    36    18    43 1   
    37    18    44 1   
    38    19    20 1   
    39    19    45 1   
    40    20    21 1   
    41    20    46 1   
    42    20    47 1   
    43    21    22 ar  
    44    21    26 2   
    45    22    23 ar  
    46    22    48 1   
    47    23    24 ar  
    48    23    49 1   
    49    24    25 ar  
    50    24    50 1   
    51    25    26 1   
    52    25    51 1   
    53    26    27 1   
    54    27    52 1   
    55    27    53 1   
    56    27    54 1   
@<TRIPOS>SUBSTRUCTURE
     1 B04         1 TEMP              0 ****  ****    0 ROOT
