@<TRIPOS>MOLECULE
B04
   54    56     1     0     0
SMALL
bcc


@<TRIPOS>ATOM
      1 N4           3.2620    -1.8300    -1.1180 n8         1 B04      -0.860800
      2 C3           2.8550    -0.6210    -0.4460 c3         1 B04       0.105500
      3 C5           1.3960    -0.6380     0.0140 c          1 B04       0.633100
      4 O7           0.8180    -1.6930     0.2500 o          1 B04      -0.623100
      5 C2           3.7310    -0.3780     0.7980 c3         1 B04      -0.019100
      6 C1           5.1690    -0.1260     0.4500 ca         1 B04      -0.081300
      7 C8           5.6140     1.1710     0.2070 ca         1 B04      -0.114500
      8 C12          6.0810    -1.1730     0.3390 ca         1 B04      -0.114500
      9 C9           6.9360     1.4200    -0.1380 ca         1 B04      -0.126500
     10 C11          7.4040    -0.9300    -0.0020 ca         1 B04      -0.126500
     11 C10          7.8370     0.3680    -0.2430 ca         1 B04      -0.119000
     12 N6           0.7870     0.5440     0.2140 n          1 B04      -0.465800
     13 C13         -0.5600     0.5670     0.7400 c5         1 B04       0.034700
     14 C14         -1.5400    -0.0080    -0.2780 c          1 B04       0.663100
     15 O15         -1.3710     0.0990    -1.4780 o          1 B04      -0.569100
     16 C19         -0.8160     2.0600     0.9850 c5         1 B04      -0.084400
     17 C20          0.0390     2.7480    -0.0720 c5         1 B04      -0.096400
     18 C21          1.2840     1.8700    -0.1420 c5         1 B04       0.111000
     19 N16         -2.6330    -0.5770     0.2750 ns         1 B04      -0.590900
     20 C17         -3.6540    -1.2430    -0.4920 c3         1 B04       0.119300
     21 C18         -5.0360    -0.7720    -0.1320 ca         1 B04       0.003400
     22 C22         -5.9260    -1.6300     0.4840 ca         1 B04      -0.139000
     23 C23         -7.2000    -1.2050     0.8200 ca         1 B04      -0.007000
     24 C24         -7.5710     0.0970     0.5310 ca         1 B04      -0.132000
     25 C25         -6.6600     0.9200    -0.0850 ca         1 B04      -0.033300
     26 N26         -5.4300     0.4910    -0.4070 na         1 B04       0.054900
     27 C27         -4.5230     1.4530    -1.0460 c3         1 B04      -0.019400
     28 HN4          3.0230    -2.6340    -0.5500 hn         1 B04       0.354800
     29 HN4A         2.7450    -1.9350    -1.9820 hn         1 B04       0.354800
     30 H3           3.0110     0.2090    -1.1410 h1         1 B04       0.077700
     31 H2           3.6430    -1.2480     1.4550 hc         1 B04       0.051200
     32 H2A          3.3390     0.4730     1.3590 hc         1 B04       0.051200
     33 H8           4.9200     2.0000     0.2930 ha         1 B04       0.124000
     34 H12          5.7530    -2.1870     0.5280 ha         1 B04       0.124000
     35 H9           7.2640     2.4360    -0.3200 ha         1 B04       0.133000
     36 H11          8.1010    -1.7550    -0.0780 ha         1 B04       0.133000
     37 H10          8.8690     0.5590    -0.5060 ha         1 B04       0.135000
     38 H13         -0.6210    -0.0020     1.6710 h1         1 B04       0.082700
     39 H19         -1.8730     2.3230     0.9350 hc         1 B04       0.055700
     40 H19A        -0.4650     2.3150     1.9860 hc         1 B04       0.055700
     41 H20         -0.4720     2.7570    -1.0360 hc         1 B04       0.066200
     42 H20A         0.2820     3.7770     0.1870 hc         1 B04       0.066200
     43 H21          2.0400     2.2080     0.5720 h1         1 B04       0.062700
     44 H21A         1.7320     1.8760    -1.1350 h1         1 B04       0.062700
     45 HN16        -2.6420    -0.7280     1.2720 hn         1 B04       0.328500
     46 H17         -3.4600    -1.0970    -1.5550 h1         1 B04       0.101700
     47 H17A        -3.6190    -2.3180    -0.3140 h1         1 B04       0.101700
     48 H22         -5.6070    -2.6380     0.7020 ha         1 B04       0.192000
     49 H23         -7.8920    -1.8830     1.3010 ha         1 B04       0.189000
     50 H24         -8.5510     0.4810     0.7710 ha         1 B04       0.197000
     51 H25         -6.8930     1.9430    -0.3380 h4         1 B04       0.201000
     52 H27         -3.9390     0.9720    -1.8220 h1         1 B04       0.098367
     53 H27A        -5.1170     2.2400    -1.4970 h1         1 B04       0.098367
     54 H27B        -3.8670     1.8860    -0.2960 h1         1 B04       0.098367
@<TRIPOS>BOND
     1     1     2 1   
     2     1    28 1   
     3     1    29 1   
     4     2     3 1   
     5     2     5 1   
     6     2    30 1   
     7     3     4 2   
     8     3    12 1   
     9     5     6 1   
    10     5    31 1   
    11     5    32 1   
    12     6     7 ar  
    13     6     8 ar  
    14     7     9 ar  
    15     7    33 1   
    16     8    10 ar  
    17     8    34 1   
    18     9    11 ar  
    19     9    35 1   
    20    10    11 ar  
    21    10    36 1   
    22    11    37 1   
    23    12    13 1   
    24    12    18 1   
    25    13    14 1   
    26    13    16 1   
    27    13    38 1   
    28    14    15 2   
    29    14    19 1   
    30    16    17 1   
    31    16    39 1   
    32    16    40 1   
    33    17    18 1   
    34    17    41 1   
    35    17    42 1   
    36    18    43 1   
    37    18    44 1   
    38    19    20 1   
    39    19    45 1   
    40    20    21 1   
    41    20    46 1   
    42    20    47 1   
    43    21    22 ar  
    44    21    26 2   
    45    22    23 ar  
    46    22    48 1   
    47    23    24 ar  
    48    23    49 1   
    49    24    25 ar  
    50    24    50 1   
    51    25    26 1   
    52    25    51 1   
    53    26    27 1   
    54    27    52 1   
    55    27    53 1   
    56    27    54 1   
@<TRIPOS>SUBSTRUCTURE
     1 B04         1 TEMP              0 ****  ****    0 ROOT
