@<TRIPOS>MOLECULE
B05
   42    44     1     0     0
SMALL
abcg2


@<TRIPOS>ATOM
      1 OAB         -5.8830     0.6930     0.3670 o          1 B05      -0.393500
      2 OAC         -5.6940     2.8070     0.1490 o          1 B05      -0.393500
      3 CAZ         -1.9080     0.1140    -0.3710 ca         1 B05      -0.162600
      4 CAK          4.3390     1.8180     1.2180 ca         1 B05      -0.090500
      5 CAJ          3.1420     1.7010    -0.8590 ca         1 B05      -0.090500
      6 CAI          2.6780    -4.5320    -0.0250 ca         1 B05      -0.096000
      7 NBA         -5.2370     1.6890     0.1490 no         1 B05       0.695200
      8 CAY          2.1650    -2.1920     0.1420 ca         1 B05       0.093100
      9 CAX          0.7950    -2.4750    -0.0320 ca         1 B05      -0.051000
     10 CAW         -3.8140     1.5350    -0.1300 ca         1 B05      -0.187200
     11 CAV         -1.1330     1.2390    -0.6450 ca         1 B05      -0.046000
     12 CAU          3.7680     1.0560     0.2070 ca         1 B05      -0.099300
     13 CAQ          3.8020    -0.4420     0.2580 c3         1 B05       0.219900
     14 CAP         -3.2670     0.2640    -0.1280 ca         1 B05       0.002000
     15 CAO          3.0970    -3.2160     0.1470 ca         1 B05      -0.170000
     16 CAN         -3.0520     2.6640    -0.3940 ca         1 B05      -0.029000
     17 CAM         -1.7040     2.5020    -0.6600 ca         1 B05      -0.129000
     18 CAL          0.3920    -3.7930    -0.1930 ca         1 B05      -0.100000
     19 OAA         -2.0630    -2.2310    -0.6540 o          1 B05      -0.576100
     20 NAR         -0.0540    -1.3620    -0.0240 ns         1 B05      -0.132000
     21 CAH          1.3350    -4.8170    -0.1920 ca         1 B05      -0.117000
     22 CAF          3.0880     3.0850    -0.9080 ca         1 B05      -0.114000
     23 CAE          3.6670     3.8420     0.1050 ca         1 B05      -0.098000
     24 CAG          4.2950     3.2070     1.1660 ca         1 B05      -0.114000
     25 H2           2.6970     1.1210    -1.6600 ha         1 B05       0.116000
     26 H3           3.4120    -5.3270    -0.0210 ha         1 B05       0.116000
     27 H4          -0.0780     1.1480    -0.8780 ha         1 B05       0.129000
     28 H5           4.2960    -0.8500    -0.6300 h1         1 B05       0.046200
     29 H6           4.3510    -0.7900     1.1390 h1         1 B05       0.046200
     30 H7          -3.8780    -0.6060     0.0650 ha         1 B05       0.173000
     31 H8           4.1500    -3.0070     0.2830 ha         1 B05       0.118000
     32 H9          -3.4910     3.6510    -0.3990 ha         1 B05       0.154000
     33 H10         -1.0970     3.3680    -0.8830 ha         1 B05       0.131000
     34 H11         -0.6510    -4.0320    -0.3240 ha         1 B05       0.150000
     35 H12          0.3940    -0.5080     0.2700 hn         1 B05       0.172000
     36 H13          1.0050    -5.8390    -0.3220 ha         1 B05       0.120000
     37 H14          2.5990     3.5750    -1.7400 ha         1 B05       0.116000
     38 H15          3.6270     4.9230     0.0650 ha         1 B05       0.116000
     39 H16          4.7450     3.7880     1.9600 ha         1 B05       0.116000
     40 CAT         -1.3560    -1.2800    -0.3710 c          1 B05       0.620700
     41 OAS          2.4530    -0.8850     0.3040 os         1 B05      -0.377100
     42 H1           4.8180     1.3260     2.0550 ha         1 B05       0.116000
@<TRIPOS>BOND
     1     1     7 1   
     2     2     7 1   
     3     3    11 ar  
     4     3    14 ar  
     5     3    40 1   
     6     4    12 ar  
     7     4    24 ar  
     8     4    42 1   
     9     5    12 ar  
    10     5    22 ar  
    11     5    25 1   
    12     6    15 ar  
    13     6    21 ar  
    14     6    26 1   
    15     7    10 1   
    16     8     9 ar  
    17     8    15 ar  
    18     8    41 1   
    19     9    18 ar  
    20     9    20 1   
    21    10    14 ar  
    22    10    16 ar  
    23    11    17 ar  
    24    11    27 1   
    25    12    13 1   
    26    13    28 1   
    27    13    29 1   
    28    13    41 1   
    29    14    30 1   
    30    15    31 1   
    31    16    17 ar  
    32    16    32 1   
    33    17    33 1   
    34    18    21 ar  
    35    18    34 1   
    36    19    40 2   
    37    20    35 1   
    38    20    40 1   
    39    21    36 1   
    40    22    23 ar  
    41    22    37 1   
    42    23    24 ar  
    43    23    38 1   
    44    24    39 1   
@<TRIPOS>SUBSTRUCTURE
     1 B05         1 TEMP              0 ****  ****    0 ROOT
