@<TRIPOS>MOLECULE
B05
   42    44     1     0     0
SMALL
No Charge or Current Charge


@<TRIPOS>ATOM
      1 OAB         -6.2470     0.6710    -0.1600 o          1 B05      -0.393500
      2 OAC         -6.0110     2.8400    -0.1500 o          1 B05      -0.393500
      3 CAZ         -2.0730     0.0690    -0.0990 ca         1 B05      -0.162600
      4 CAK          3.8980     1.8050     1.2130 ca         1 B05      -0.090500
      5 CAJ          3.9290     1.8130    -1.2200 ca         1 B05      -0.090500
      6 CAI          2.7290    -4.5740    -0.0420 ca         1 B05      -0.096000
      7 NBA         -5.5470     1.6920    -0.1460 no         1 B05       0.695200
      8 CAY          2.1790    -2.1970    -0.0420 ca         1 B05       0.093100
      9 CAX          0.8020    -2.5090    -0.0640 ca         1 B05      -0.051000
     10 CAW         -4.0580     1.5300    -0.1240 ca         1 B05      -0.187200
     11 CAV         -1.2500     1.2220    -0.0830 ca         1 B05      -0.046000
     12 CAU          3.9160     1.0980    -0.0060 ca         1 B05      -0.099300
     13 CAQ          3.9070    -0.4250    -0.0110 c3         1 B05       0.219900
     14 CAP         -3.4780     0.2380    -0.1200 ca         1 B05       0.002000
     15 CAO          3.1410    -3.2320    -0.0310 ca         1 B05      -0.170000
     16 CAN         -3.2160     2.6640    -0.1080 ca         1 B05      -0.029000
     17 CAM         -1.8220     2.5040    -0.0880 ca         1 B05      -0.129000
     18 CAL          0.3990    -3.8640    -0.0740 ca         1 B05      -0.100000
     19 OAA         -2.2280    -2.3200    -0.1090 o          1 B05      -0.576100
     20 NAR         -0.1110    -1.4160    -0.0740 ns         1 B05      -0.132000
     21 CAH          1.3620    -4.8880    -0.0630 ca         1 B05      -0.117000
     22 CAF          3.9290     3.2190    -1.2150 ca         1 B05      -0.114000
     23 CAE          3.9140     3.9190     0.0030 ca         1 B05      -0.098000
     24 CAG          3.8980     3.2110     1.2170 ca         1 B05      -0.114000
     25 H2           3.9360     1.2790    -2.1680 ha         1 B05       0.116000
     26 H3           3.4700    -5.3710    -0.0330 ha         1 B05       0.116000
     27 H4          -0.1650     1.1500    -0.0670 ha         1 B05       0.129000
     28 H5           4.4460    -0.7920    -0.8940 h1         1 B05       0.046200
     29 H6           4.4200    -0.7980     0.8850 h1         1 B05       0.046200
     30 H7          -4.1200    -0.6420    -0.1320 ha         1 B05       0.173000
     31 H8           4.2050    -3.0150    -0.0140 ha         1 B05       0.118000
     32 H9          -3.6310     3.6710    -0.1120 ha         1 B05       0.154000
     33 H10         -1.1790     3.3820    -0.0760 ha         1 B05       0.131000
     34 H11         -0.6490    -4.1460    -0.0910 ha         1 B05       0.150000
     35 H12          0.3540    -0.5190    -0.0650 hn         1 B05       0.172000
     36 H13          1.0460    -5.9300    -0.0710 ha         1 B05       0.120000
     37 H14          3.9390     3.7660    -2.1560 ha         1 B05       0.116000
     38 H15          3.9130     5.0070     0.0070 ha         1 B05       0.116000
     39 H16          3.8840     3.7520     2.1610 ha         1 B05       0.116000
     40 CAT         -1.4970    -1.3350    -0.0950 c          1 B05       0.620700
     41 OAS          2.5370    -0.8610    -0.0330 os         1 B05      -0.377100
     42 H1           3.8810     1.2650     2.1570 ha         1 B05       0.116000
@<TRIPOS>BOND
     1     1     7 1   
     2     2     7 1   
     3     3    11 ar  
     4     3    14 ar  
     5     3    40 1   
     6     4    12 ar  
     7     4    24 ar  
     8     4    42 1   
     9     5    12 ar  
    10     5    22 ar  
    11     5    25 1   
    12     6    15 ar  
    13     6    21 ar  
    14     6    26 1   
    15     7    10 1   
    16     8     9 ar  
    17     8    15 ar  
    18     8    41 1   
    19     9    18 ar  
    20     9    20 1   
    21    10    14 ar  
    22    10    16 ar  
    23    11    17 ar  
    24    11    27 1   
    25    12    13 1   
    26    13    28 1   
    27    13    29 1   
    28    13    41 1   
    29    14    30 1   
    30    15    31 1   
    31    16    17 ar  
    32    16    32 1   
    33    17    33 1   
    34    18    21 ar  
    35    18    34 1   
    36    19    40 2   
    37    20    35 1   
    38    20    40 1   
    39    21    36 1   
    40    22    23 ar  
    41    22    37 1   
    42    23    24 ar  
    43    23    38 1   
    44    24    39 1   
@<TRIPOS>SUBSTRUCTURE
     1 B05         1 TEMP              0 ****  ****    0 ROOT
