@<TRIPOS>MOLECULE
B06
   32    34     1     0     0
SMALL
abcg2


@<TRIPOS>ATOM
      1 O01          3.6840    -2.6220     1.2070 o          1 B06      -0.696500
      2 C02          3.5430    -2.0940     0.0920 c          1 B06       0.723600
      3 O03          3.3910    -2.6430    -1.0110 o          1 B06      -0.696500
      4 C04          3.6180    -0.5770     0.0670 ca         1 B06      -0.025600
      5 C05          4.8540     0.0680     0.0670 ca         1 B06      -0.111000
      6 C06          4.9510     1.4570     0.0210 ca         1 B06      -0.102000
      7 C07          3.8180     2.2620    -0.0150 ca         1 B06      -0.141000
      8 C08          2.5910     1.6280    -0.0030 ca         1 B06      -0.102300
      9 C09          1.2210     2.2170    -0.0160 c5         1 B06       0.146300
     10 N10          0.3550     1.0450     0.0110 n          1 B06      -0.239400
     11 C11          1.0770    -0.1320     0.0530 c          1 B06       0.590600
     12 O12          0.6200    -1.2560     0.1060 o          1 B06      -0.479000
     13 C13          2.4980     0.2470     0.0330 ca         1 B06      -0.153600
     14 C14         -1.0340     1.1820     0.0110 ca         1 B06       0.020000
     15 C15         -1.5910     2.4660     0.0610 ca         1 B06      -0.160000
     16 C16         -2.9630     2.6450     0.0590 ca         1 B06      -0.095000
     17 C17         -3.8250     1.5610     0.0080 ca         1 B06      -0.118000
     18 C18         -3.2760     0.2890    -0.0490 ca         1 B06      -0.167300
     19 C19         -1.9020     0.0880    -0.0460 ca         1 B06      -0.101000
     20 C20         -4.1570    -0.9230    -0.0730 c3         1 B06       0.353300
     21 F21         -5.4300    -0.6270    -0.3540 f          1 B06      -0.117333
     22 F22         -3.7550    -1.8210    -0.9810 f          1 B06      -0.117333
     23 F23         -4.1590    -1.5540     1.1120 f          1 B06      -0.117333
     24 H2           5.7630    -0.5200     0.1000 ha         1 B06       0.119000
     25 H3           5.9310     1.9160     0.0160 ha         1 B06       0.091000
     26 H4           3.9010     3.3400    -0.0460 ha         1 B06       0.095000
     27 H5           1.0520     2.8560     0.8550 h1         1 B06       0.046700
     28 H6           1.0400     2.8200    -0.9100 h1         1 B06       0.046700
     29 H7          -0.9620     3.3430     0.1010 ha         1 B06       0.112000
     30 H8          -3.3620     3.6490     0.1000 ha         1 B06       0.105000
     31 H9          -4.8930     1.7200     0.0100 ha         1 B06       0.119000
     32 H10         -1.5060    -0.9130    -0.0910 ha         1 B06       0.173000
@<TRIPOS>BOND
     1     1     2 1   
     2     2     3 1   
     3     2     4 1   
     4     4     5 ar  
     5     4    13 ar  
     6     5     6 ar  
     7     5    24 1   
     8     6     7 ar  
     9     6    25 1   
    10     7     8 ar  
    11     7    26 1   
    12     8     9 1   
    13     8    13 ar  
    14     9    10 1   
    15     9    27 1   
    16     9    28 1   
    17    10    11 1   
    18    10    14 1   
    19    11    12 2   
    20    11    13 1   
    21    14    15 ar  
    22    14    19 ar  
    23    15    16 ar  
    24    15    29 1   
    25    16    17 ar  
    26    16    30 1   
    27    17    18 ar  
    28    17    31 1   
    29    18    19 ar  
    30    18    20 1   
    31    19    32 1   
    32    20    21 1   
    33    20    22 1   
    34    20    23 1   
@<TRIPOS>SUBSTRUCTURE
     1 B06         1 TEMP              0 ****  ****    0 ROOT
