@<TRIPOS>MOLECULE
B06
   32    34     1     0     0
SMALL
No Charge or Current Charge


@<TRIPOS>ATOM
      1 O01          3.9710    -2.4270     1.6560 o          1 B06      -0.696500
      2 C02          3.5300    -2.0380     0.5820 c          1 B06       0.723600
      3 O03          3.0890    -2.7860    -0.2810 o          1 B06      -0.696500
      4 C04          3.6470    -0.5670     0.2580 ca         1 B06      -0.025600
      5 C05          4.9200     0.0240     0.0800 ca         1 B06      -0.111000
      6 C06          5.0410     1.3940    -0.2420 ca         1 B06      -0.102000
      7 C07          3.8930     2.1950    -0.3890 ca         1 B06      -0.141000
      8 C08          2.6320     1.6100    -0.2050 ca         1 B06      -0.102300
      9 C09          1.2770     2.2910    -0.2970 c5         1 B06       0.146300
     10 N10          0.3630     1.1360    -0.0180 n          1 B06      -0.239400
     11 C11          1.0800    -0.0480     0.2720 c          1 B06       0.590600
     12 O12          0.6100    -1.1210     0.6280 o          1 B06      -0.479000
     13 C13          2.5180     0.2680     0.1140 ca         1 B06      -0.153600
     14 C14         -1.0730     1.2750    -0.0370 ca         1 B06       0.020000
     15 C15         -1.6570     2.4530     0.4740 ca         1 B06      -0.160000
     16 C16         -3.0500     2.5640     0.6110 ca         1 B06      -0.095000
     17 C17         -3.8800     1.4840     0.2790 ca         1 B06      -0.118000
     18 C18         -3.3220     0.2740    -0.1800 ca         1 B06      -0.167300
     19 C19         -1.9170     0.1730    -0.3020 ca         1 B06      -0.101000
     20 C20         -4.2120    -0.9320    -0.5100 c3         1 B06       0.353300
     21 F21         -5.4840    -0.5760    -0.8060 f          1 B06      -0.117333
     22 F22         -3.7510    -1.6290    -1.5750 f          1 B06      -0.117333
     23 F23         -4.2760    -1.7950     0.5290 f          1 B06      -0.117333
     24 H2           5.8150    -0.5850     0.1850 ha         1 B06       0.119000
     25 H3           6.0280     1.8310    -0.3790 ha         1 B06       0.091000
     26 H4           3.9840     3.2510    -0.6360 ha         1 B06       0.095000
     27 H5           1.1830     3.0820     0.4570 h1         1 B06       0.046700
     28 H6           1.1010     2.7140    -1.2940 h1         1 B06       0.046700
     29 H7          -1.0380     3.2940     0.7720 ha         1 B06       0.112000
     30 H8          -3.4860     3.4860     0.9900 ha         1 B06       0.105000
     31 H9          -4.9570     1.5880     0.4010 ha         1 B06       0.119000
     32 H10         -1.4870    -0.7660    -0.6430 ha         1 B06       0.173000
@<TRIPOS>BOND
     1     1     2 1   
     2     2     3 1   
     3     2     4 1   
     4     4     5 ar  
     5     4    13 ar  
     6     5     6 ar  
     7     5    24 1   
     8     6     7 ar  
     9     6    25 1   
    10     7     8 ar  
    11     7    26 1   
    12     8     9 1   
    13     8    13 ar  
    14     9    10 1   
    15     9    27 1   
    16     9    28 1   
    17    10    11 1   
    18    10    14 1   
    19    11    12 2   
    20    11    13 1   
    21    14    15 ar  
    22    14    19 ar  
    23    15    16 ar  
    24    15    29 1   
    25    16    17 ar  
    26    16    30 1   
    27    17    18 ar  
    28    17    31 1   
    29    18    19 ar  
    30    18    20 1   
    31    19    32 1   
    32    20    21 1   
    33    20    22 1   
    34    20    23 1   
@<TRIPOS>SUBSTRUCTURE
     1 B06         1 TEMP              0 ****  ****    0 ROOT
