@<TRIPOS>MOLECULE
B08
   45    47     1     0     0
SMALL
bcc


@<TRIPOS>ATOM
      1 CAN          4.8230    -2.7780     3.8250 ca         1 B08      -0.094500
      2 CAI          4.5470    -3.2700     5.0930 ca         1 B08      -0.127000
      3 CAH          5.5360    -3.3070     6.0680 ca         1 B08      -0.075000
      4 CAJ          6.8090    -2.8440     5.7640 ca         1 B08      -0.127000
      5 CAO          7.0890    -2.3490     4.4980 ca         1 B08      -0.094500
      6 CAW          6.1040    -2.3100     3.5090 cp         1 B08      -0.027000
      7 CAY          6.3930    -1.7820     2.1580 cp         1 B08      -0.013000
      8 CAT          5.3690    -1.1920     1.4220 ca         1 B08      -0.110000
      9 CAQ          7.6620    -1.8680     1.5800 ca         1 B08      -0.032000
     10 CAL          7.8820    -1.3760     0.3010 ca         1 B08      -0.161000
     11 CAR          6.8440    -0.8190    -0.4350 ca         1 B08      -0.032000
     12 CAZ          5.5670    -0.7370     0.1170 cp         1 B08      -0.033000
     13 CAX          4.3920    -0.2140    -0.6090 cp         1 B08       0.005000
     14 CAS          3.1640    -0.8230    -0.3630 ca         1 B08      -0.093000
     15 CAP          4.4390     0.8940    -1.4560 ca         1 B08      -0.095000
     16 CAK          3.2610     1.3830    -2.0030 ca         1 B08      -0.123000
     17 CAM          2.0380     0.7930    -1.6950 ca         1 B08      -0.032000
     18 CAV          1.9690    -0.3260    -0.8680 ca         1 B08      -0.092300
     19 CAU          0.6610    -0.9520    -0.4750 c3         1 B08      -0.058100
     20 CBA          0.2000    -0.6120     0.9660 c3         1 B08       0.262400
     21 PBB          1.2450    -1.4980     2.2820 p5         1 B08       0.861200
     22 OAD          2.2840    -0.3650     2.5610 o          1 B08      -0.456833
     23 OAE          1.8630    -2.7650     1.6610 o          1 B08      -0.456833
     24 OAA          0.4010    -1.7990     3.5180 o          1 B08      -0.456833
     25 PBC         -1.6360    -0.9510     1.0750 p5         1 B08       0.861200
     26 OAF         -2.2580    -0.2100    -0.1320 o          1 B08      -0.456833
     27 OAG         -1.7680    -2.4780     0.9400 o          1 B08      -0.456833
     28 OAB         -2.1540    -0.3800     2.4010 o          1 B08      -0.456833
     29 OAC          0.4190     0.7830     1.1960 oh         1 B08      -0.531800
     30 HAN          4.0320    -2.7750     3.0820 ha         1 B08       0.146000
     31 HAI          3.5500    -3.6270     5.3190 ha         1 B08       0.150000
     32 HAH          5.3150    -3.6920     7.0550 ha         1 B08       0.146000
     33 HAJ          7.5880    -2.8600     6.5170 ha         1 B08       0.150000
     34 HAO          8.0820    -1.9730     4.2880 ha         1 B08       0.146000
     35 HAT          4.3890    -1.0510     1.8710 ha         1 B08       0.181000
     36 HAQ          8.4780    -2.3380     2.1140 ha         1 B08       0.150000
     37 HAL          8.8700    -1.4510    -0.1360 ha         1 B08       0.152000
     38 HAR          7.0270    -0.4730    -1.4460 ha         1 B08       0.148000
     39 HAS          3.1130    -1.7020     0.2670 ha         1 B08       0.171000
     40 HAP          5.3810     1.3900    -1.6610 ha         1 B08       0.147000
     41 HAK          3.2920     2.2480    -2.6550 ha         1 B08       0.154000
     42 HAM          1.1260     1.2080    -2.1100 ha         1 B08       0.161000
     43 HAU1         0.7190    -2.0370    -0.5720 hc         1 B08       0.113700
     44 HAU2        -0.1110    -0.6040    -1.1660 hc         1 B08       0.113700
     45 HOAC         1.2720     0.7510     1.6890 ho         1 B08       0.473000
@<TRIPOS>BOND
     1     1     2 ar  
     2     1     6 ar  
     3     1    30 1   
     4     2     3 ar  
     5     2    31 1   
     6     3     4 ar  
     7     3    32 1   
     8     4     5 ar  
     9     4    33 1   
    10     5     6 ar  
    11     5    34 1   
    12     6     7 1   
    13     7     8 ar  
    14     7     9 ar  
    15     8    12 ar  
    16     8    35 1   
    17     9    10 ar  
    18     9    36 1   
    19    10    11 ar  
    20    10    37 1   
    21    11    12 ar  
    22    11    38 1   
    23    12    13 1   
    24    13    14 ar  
    25    13    15 ar  
    26    14    18 ar  
    27    14    39 1   
    28    15    16 ar  
    29    15    40 1   
    30    16    17 ar  
    31    16    41 1   
    32    17    18 ar  
    33    17    42 1   
    34    18    19 1   
    35    19    20 1   
    36    19    43 1   
    37    19    44 1   
    38    20    21 1   
    39    20    25 1   
    40    20    29 1   
    41    21    22 1   
    42    21    23 1   
    43    21    24 1   
    44    25    26 1   
    45    25    27 1   
    46    25    28 1   
    47    29    45 1   
@<TRIPOS>SUBSTRUCTURE
     1 B08         1 TEMP              0 ****  ****    0 ROOT
