@<TRIPOS>MOLECULE
B08
   45    47     1     0     0
SMALL
No Charge or Current Charge


@<TRIPOS>ATOM
      1 CAN          5.2570    -3.2100     4.0260 ca         1 B08      -0.094500
      2 CAI          5.1300    -3.7460     5.3200 ca         1 B08      -0.127000
      3 CAH          6.1830    -3.6190     6.2410 ca         1 B08      -0.075000
      4 CAJ          7.3620    -2.9540     5.8660 ca         1 B08      -0.127000
      5 CAO          7.4880    -2.4190     4.5710 ca         1 B08      -0.094500
      6 CAW          6.4390    -2.5360     3.6240 cp         1 B08      -0.027000
      7 CAY          6.5720    -1.9640     2.2460 cp         1 B08      -0.013000
      8 CAT          5.4610    -1.3830     1.5860 ca         1 B08      -0.110000
      9 CAQ          7.8110    -1.9820     1.5600 ca         1 B08      -0.032000
     10 CAL          7.9300    -1.4410     0.2680 ca         1 B08      -0.161000
     11 CAR          6.8120    -0.8700    -0.3640 ca         1 B08      -0.032000
     12 CAZ          5.5540    -0.8330     0.2830 cp         1 B08      -0.033000
     13 CAX          4.3570    -0.2290    -0.3800 cp         1 B08       0.005000
     14 CAS          3.0750    -0.8120    -0.2280 ca         1 B08      -0.093000
     15 CAP          4.4650     0.9440    -1.1660 ca         1 B08      -0.095000
     16 CAK          3.3320     1.5140    -1.7700 ca         1 B08      -0.123000
     17 CAM          2.0670     0.9270    -1.5940 ca         1 B08      -0.032000
     18 CAV          1.9290    -0.2360    -0.8110 ca         1 B08      -0.092300
     19 CAU          0.5540    -0.8800    -0.6160 c3         1 B08      -0.058100
     20 CBA         -0.2730    -0.3210     0.5880 c3         1 B08       0.262400
     21 PBB          0.5360    -0.6820     2.2530 p5         1 B08       0.861200
     22 OAD          1.6640     0.2860     2.3870 o          1 B08      -0.456833
     23 OAE          1.0600    -2.0790     2.2280 o          1 B08      -0.456833
     24 OAA         -0.4490    -0.4970     3.3570 o          1 B08      -0.456833
     25 PBC         -1.9320    -1.2090     0.6690 p5         1 B08       0.861200
     26 OAF         -2.5270    -1.1590    -0.6990 o          1 B08      -0.456833
     27 OAG         -1.7090    -2.6210     1.0960 o          1 B08      -0.456833
     28 OAB         -2.8170    -0.4890     1.6320 o          1 B08      -0.456833
     29 OAC         -0.4480     1.1160     0.3810 oh         1 B08      -0.531800
     30 HAN          4.4350    -3.3330     3.3240 ha         1 B08       0.146000
     31 HAI          4.2170    -4.2640     5.6070 ha         1 B08       0.150000
     32 HAH          6.0850    -4.0330     7.2430 ha         1 B08       0.146000
     33 HAJ          8.1780    -2.8510     6.5790 ha         1 B08       0.150000
     34 HAO          8.4040    -1.8960     4.3060 ha         1 B08       0.146000
     35 HAT          4.5100    -1.3290     2.1100 ha         1 B08       0.181000
     36 HAQ          8.6840    -2.4330     2.0260 ha         1 B08       0.150000
     37 HAL          8.8880    -1.4680    -0.2460 ha         1 B08       0.152000
     38 HAR          6.9190    -0.4670    -1.3690 ha         1 B08       0.148000
     39 HAS          2.9780    -1.7290     0.3500 ha         1 B08       0.171000
     40 HAP          5.4330     1.4230    -1.2960 ha         1 B08       0.147000
     41 HAK          3.4320     2.4160    -2.3720 ha         1 B08       0.154000
     42 HAM          1.1970     1.3790    -2.0680 ha         1 B08       0.161000
     43 HAU1         0.6630    -1.9670    -0.5010 hc         1 B08       0.113700
     44 HAU2        -0.0330    -0.7510    -1.5340 hc         1 B08       0.113700
     45 HOAC         0.3940     1.5490     0.6410 ho         1 B08       0.473000
@<TRIPOS>BOND
     1     1     2 ar  
     2     1     6 ar  
     3     1    30 1   
     4     2     3 ar  
     5     2    31 1   
     6     3     4 ar  
     7     3    32 1   
     8     4     5 ar  
     9     4    33 1   
    10     5     6 ar  
    11     5    34 1   
    12     6     7 1   
    13     7     8 ar  
    14     7     9 ar  
    15     8    12 ar  
    16     8    35 1   
    17     9    10 ar  
    18     9    36 1   
    19    10    11 ar  
    20    10    37 1   
    21    11    12 ar  
    22    11    38 1   
    23    12    13 1   
    24    13    14 ar  
    25    13    15 ar  
    26    14    18 ar  
    27    14    39 1   
    28    15    16 ar  
    29    15    40 1   
    30    16    17 ar  
    31    16    41 1   
    32    17    18 ar  
    33    17    42 1   
    34    18    19 1   
    35    19    20 1   
    36    19    43 1   
    37    19    44 1   
    38    20    21 1   
    39    20    25 1   
    40    20    29 1   
    41    21    22 1   
    42    21    23 1   
    43    21    24 1   
    44    25    26 1   
    45    25    27 1   
    46    25    28 1   
    47    29    45 1   
@<TRIPOS>SUBSTRUCTURE
     1 B08         1 TEMP              0 ****  ****    0 ROOT
