@<TRIPOS>MOLECULE
B09
   21    21     1     0     0
SMALL
bcc


@<TRIPOS>ATOM
      1 C1           0.7320    -0.1630     0.0560 ca         1 B09      -0.304500
      2 N1          -1.7820     0.2400     1.1400 n7         1 B09      -0.531600
      3 O1          -1.5160    -0.6170    -1.2060 o          1 B09      -0.594300
      4 S1          -0.9240    -0.7770     0.1080 sy         1 B09       1.251200
      5 C2           1.6530    -0.6310     0.9850 ca         1 B09      -0.027500
      6 O2          -0.9400    -2.0660     0.7760 o          1 B09      -0.594300
      7 C3           2.9450    -0.1300     0.9570 ca         1 B09      -0.148500
      8 O3          -1.6840     1.5520     0.7050 os         1 B09      -0.212100
      9 C4           3.3030     0.8270     0.0160 ca         1 B09      -0.070000
     10 C5           2.3710     1.2860    -0.9060 ca         1 B09      -0.148500
     11 C6           1.0750     0.7930    -0.8920 ca         1 B09      -0.027500
     12 C7          -2.9520     2.0180     0.2630 c3         1 B09       0.117700
     13 HN1         -1.4240     0.1870     2.0930 hn         1 B09       0.415800
     14 H2           1.3820    -1.3810     1.7150 ha         1 B09       0.154500
     15 H3           3.6730    -0.4920     1.6700 ha         1 B09       0.138500
     16 H4           4.3130     1.2140    -0.0010 ha         1 B09       0.135000
     17 H5           2.6520     2.0280    -1.6410 ha         1 B09       0.138500
     18 H6           0.3550     1.1460    -1.6170 ha         1 B09       0.154500
     19 H7          -3.3270     1.4350    -0.5790 h1         1 B09       0.051367
     20 H7A         -3.6860     2.0040     1.0710 h1         1 B09       0.051367
     21 H7B         -2.7910     3.0460    -0.0570 h1         1 B09       0.051367
@<TRIPOS>BOND
     1     1     4 1   
     2     1     5 ar  
     3     1    11 ar  
     4     2     4 1   
     5     2     8 1   
     6     2    13 1   
     7     3     4 2   
     8     4     6 2   
     9     5     7 ar  
    10     5    14 1   
    11     7     9 ar  
    12     7    15 1   
    13     8    12 1   
    14     9    10 ar  
    15     9    16 1   
    16    10    11 ar  
    17    10    17 1   
    18    11    18 1   
    19    12    19 1   
    20    12    20 1   
    21    12    21 1   
@<TRIPOS>SUBSTRUCTURE
     1 B09         1 TEMP              0 ****  ****    0 ROOT
