@<TRIPOS>MOLECULE
B09
   21    21     1     0     0
SMALL
No Charge or Current Charge


@<TRIPOS>ATOM
      1 C1           0.9240     0.0850    -0.1990 ca         1 B09      -0.304500
      2 N1          -1.4470     1.1680     0.3890 n7         1 B09      -0.586800
      3 O1          -1.0480     0.3630    -1.9900 o          1 B09      -0.523500
      4 S1          -0.8270    -0.0520    -0.5990 sy         1 B09       1.109600
      5 C2           1.4280    -0.5230     0.9700 ca         1 B09      -0.009500
      6 O2          -1.3370    -1.3180    -0.0600 o          1 B09      -0.523500
      7 C3           2.7930    -0.4150     1.2860 ca         1 B09      -0.130500
      8 O3          -2.7940     1.5760    -0.0240 os         1 B09      -0.235300
      9 C4           3.6600     0.2990     0.4420 ca         1 B09      -0.052000
     10 C5           3.1610     0.9070    -0.7230 ca         1 B09      -0.130500
     11 C6           1.7960     0.8030    -1.0460 ca         1 B09      -0.009500
     12 C7          -3.7910     1.4090     0.9990 c3         1 B09       0.140900
     13 HN1         -0.8310     1.9630     0.2130 hn         1 B09       0.471000
     14 H2           0.7670    -1.0780     1.6350 ha         1 B09       0.136500
     15 H3           3.1790    -0.8840     2.1880 ha         1 B09       0.120500
     16 H4           4.7170     0.3820     0.6890 ha         1 B09       0.117000
     17 H5           3.8320     1.4600    -1.3760 ha         1 B09       0.120500
     18 H6           1.4270     1.2800    -1.9530 ha         1 B09       0.136500
     19 H7          -3.8650     0.3560     1.3000 h1         1 B09       0.051367
     20 H7A         -3.5440     2.0070     1.8840 h1         1 B09       0.051367
     21 H7B         -4.7730     1.7300     0.6310 h1         1 B09       0.051367
@<TRIPOS>BOND
     1     1     4 1   
     2     1     5 ar  
     3     1    11 ar  
     4     2     4 1   
     5     2     8 1   
     6     2    13 1   
     7     3     4 2   
     8     4     6 2   
     9     5     7 ar  
    10     5    14 1   
    11     7     9 ar  
    12     7    15 1   
    13     8    12 1   
    14     9    10 ar  
    15     9    16 1   
    16    10    11 ar  
    17    10    17 1   
    18    11    18 1   
    19    12    19 1   
    20    12    20 1   
    21    12    21 1   
@<TRIPOS>SUBSTRUCTURE
     1 B09         1 TEMP              0 ****  ****    0 ROOT
