@<TRIPOS>MOLECULE
B0A
   36    37     1     0     0
SMALL
bcc


@<TRIPOS>ATOM
      1 N1           1.4820     0.4040    -0.0240 ns         1 B0A      -0.576900
      2 C4          -3.2040    -0.0690    -0.1520 ca         1 B0A       0.138100
      3 C5          -4.1860    -0.8710    -0.7370 ca         1 B0A      -0.187000
      4 C6          -5.5240    -0.5620    -0.5710 ca         1 B0A      -0.093000
      5 C7          -0.8970     0.2910     0.2300 c3         1 B0A       0.052400
      6 C8           0.4160    -0.4030    -0.1030 c          1 B0A       0.669100
      7 C10          3.6880     1.0930    -0.7860 c6         1 B0A      -0.089900
      8 C13          4.9100    -0.9730     0.9180 c6         1 B0A      -0.071900
      9 C1          -5.9080     0.5470     0.1770 ca         1 B0A      -0.164000
     10 C2          -4.9300     1.3400     0.7550 ca         1 B0A      -0.093000
     11 C3          -3.5800     1.0430     0.5970 ca         1 B0A      -0.187000
     12 O1          -1.9270    -0.4480    -0.3700 os         1 B0A      -0.288900
     13 O2           0.4660    -1.5880    -0.3860 o          1 B0A      -0.568100
     14 C9           2.8540    -0.0380    -0.1920 c6         1 B0A       0.112700
     15 C11          5.1380     0.6620    -0.9810 c6         1 B0A      -0.071900
     16 C12          5.7470     0.1550     0.3220 c6         1 B0A      -0.077400
     17 C14          3.4610    -0.5390     1.1190 c6         1 B0A      -0.089900
     18 H1           1.3360     1.3670     0.2360 hn         1 B0A       0.307500
     19 H2          -3.8900    -1.7360    -1.3180 ha         1 B0A       0.139500
     20 H3          -6.2740    -1.1950    -1.0280 ha         1 B0A       0.130500
     21 H4          -1.0040     0.3200     1.3220 h1         1 B0A       0.046700
     22 H5          -0.8850     1.3290    -0.1230 h1         1 B0A       0.046700
     23 H6           3.2520     1.4120    -1.7350 hc         1 B0A       0.044700
     24 H7           3.6580     1.9580    -0.1120 hc         1 B0A       0.044700
     25 H8           4.9370    -1.8390     0.2470 hc         1 B0A       0.044200
     26 H9           5.3360    -1.3030     1.8680 hc         1 B0A       0.044200
     27 H10         -6.9550     0.7880     0.3050 ha         1 B0A       0.133000
     28 H11         -5.2090     2.2080     1.3380 ha         1 B0A       0.130500
     29 H12         -2.8450     1.6870     1.0620 ha         1 B0A       0.139500
     30 H13          2.8430    -0.8670    -0.9060 h1         1 B0A       0.079700
     31 H14          5.1840    -0.1300    -1.7360 hc         1 B0A       0.044200
     32 H15          5.7220     1.4970    -1.3750 hc         1 B0A       0.044200
     33 H16          5.8030     0.9800     1.0410 hc         1 B0A       0.040200
     34 H17          6.7730    -0.1820     0.1550 hc         1 B0A       0.040200
     35 H18          2.8630    -1.3690     1.5060 hc         1 B0A       0.044700
     36 H19          3.4130     0.2630     1.8630 hc         1 B0A       0.044700
@<TRIPOS>BOND
     1     1     6 1   
     2     1    14 1   
     3     1    18 1   
     4     2     3 ar  
     5     2    11 ar  
     6     2    12 1   
     7     3     4 ar  
     8     3    19 1   
     9     4     9 ar  
    10     4    20 1   
    11     5     6 1   
    12     5    12 1   
    13     5    21 1   
    14     5    22 1   
    15     6    13 2   
    16     7    14 1   
    17     7    15 1   
    18     7    23 1   
    19     7    24 1   
    20     8    16 1   
    21     8    17 1   
    22     8    25 1   
    23     8    26 1   
    24     9    10 ar  
    25     9    27 1   
    26    10    11 ar  
    27    10    28 1   
    28    11    29 1   
    29    14    17 1   
    30    14    30 1   
    31    15    16 1   
    32    15    31 1   
    33    15    32 1   
    34    16    33 1   
    35    16    34 1   
    36    17    35 1   
    37    17    36 1   
@<TRIPOS>SUBSTRUCTURE
     1 B0A         1 TEMP              0 ****  ****    0 ROOT
