@<TRIPOS>MOLECULE
B0A
   36    37     1     0     0
SMALL
No Charge or Current Charge


@<TRIPOS>ATOM
      1 N1           1.5430     0.4260    -0.1390 ns         1 B0A      -0.509900
      2 C4          -3.3470    -0.1550    -0.0730 ca         1 B0A       0.138100
      3 C5          -4.3710    -1.0890    -0.3060 ca         1 B0A      -0.169000
      4 C6          -5.7180    -0.7290    -0.1300 ca         1 B0A      -0.075000
      5 C7          -0.9180     0.3160    -0.0490 c3         1 B0A       0.075600
      6 C8           0.4360    -0.3780    -0.3270 c          1 B0A       0.602100
      7 C10          3.8300     1.2490    -0.5980 c6         1 B0A      -0.089900
      8 C13          4.9410    -1.1310     0.8090 c6         1 B0A      -0.071900
      9 C1          -6.0460     0.5730     0.2820 ca         1 B0A      -0.146000
     10 C2          -5.0290     1.5140     0.5180 ca         1 B0A      -0.075000
     11 C3          -3.6810     1.1540     0.3420 ca         1 B0A      -0.169000
     12 O1          -2.0440    -0.5660    -0.2620 os         1 B0A      -0.312100
     13 O2           0.5430    -1.5450    -0.6870 o          1 B0A      -0.568100
     14 C9           2.9400     0.0110    -0.3140 c6         1 B0A       0.112700
     15 C11          5.3200     0.8520    -0.7540 c6         1 B0A      -0.071900
     16 C12          5.8300     0.0980     0.4980 c6         1 B0A      -0.077400
     17 C14          3.4530    -0.7230     0.9540 c6         1 B0A      -0.089900
     18 H1           1.3640     1.3780     0.1570 hn         1 B0A       0.307500
     19 H2          -4.1170    -2.0970    -0.6250 ha         1 B0A       0.121500
     20 H3          -6.5060    -1.4580    -0.3120 ha         1 B0A       0.112500
     21 H4          -0.8980     0.6740     0.9880 h1         1 B0A       0.046700
     22 H5          -0.9810     1.1900    -0.7110 h1         1 B0A       0.046700
     23 H6           3.4870     1.7510    -1.5130 hc         1 B0A       0.044700
     24 H7           3.7280     1.9800     0.2170 hc         1 B0A       0.044700
     25 H8           5.0440    -1.8760     0.0070 hc         1 B0A       0.044200
     26 H9           5.2870    -1.6170     1.7320 hc         1 B0A       0.044200
     27 H10         -7.0880     0.8540     0.4190 ha         1 B0A       0.115000
     28 H11         -5.2850     2.5220     0.8370 ha         1 B0A       0.112500
     29 H12         -2.9140     1.8990     0.5300 ha         1 B0A       0.121500
     30 H13          3.0000    -0.6730    -1.1750 h1         1 B0A       0.079700
     31 H14          5.4430     0.2200    -1.6440 hc         1 B0A       0.044200
     32 H15          5.9300     1.7510    -0.9220 hc         1 B0A       0.044200
     33 H16          5.8380     0.7770     1.3620 hc         1 B0A       0.040200
     34 H17          6.8700    -0.2230     0.3430 hc         1 B0A       0.040200
     35 H18          2.8460    -1.6190     1.1390 hc         1 B0A       0.044700
     36 H19          3.3330    -0.0770     1.8350 hc         1 B0A       0.044700
@<TRIPOS>BOND
     1     1     6 1   
     2     1    14 1   
     3     1    18 1   
     4     2     3 ar  
     5     2    11 ar  
     6     2    12 1   
     7     3     4 ar  
     8     3    19 1   
     9     4     9 ar  
    10     4    20 1   
    11     5     6 1   
    12     5    12 1   
    13     5    21 1   
    14     5    22 1   
    15     6    13 2   
    16     7    14 1   
    17     7    15 1   
    18     7    23 1   
    19     7    24 1   
    20     8    16 1   
    21     8    17 1   
    22     8    25 1   
    23     8    26 1   
    24     9    10 ar  
    25     9    27 1   
    26    10    11 ar  
    27    10    28 1   
    28    11    29 1   
    29    14    17 1   
    30    14    30 1   
    31    15    16 1   
    32    15    31 1   
    33    15    32 1   
    34    16    33 1   
    35    16    34 1   
    36    17    35 1   
    37    17    36 1   
@<TRIPOS>SUBSTRUCTURE
     1 B0A         1 TEMP              0 ****  ****    0 ROOT
