@<TRIPOS>MOLECULE
B0B
   71    73     1     0     0
SMALL
No Charge or Current Charge


@<TRIPOS>ATOM
      1 C4          -4.9870     0.2070     0.5350 ce         1 B0B      -0.076200
      2 C5          -6.4520    -0.1280     0.2210 c6         1 B0B      -0.074200
      3 C6          -7.1210     1.0050    -0.5990 c6         1 B0B       0.173300
      4 C7          -3.9890    -0.6890     0.2810 cf         1 B0B      -0.165000
      5 C10         -2.5600    -0.4650     0.5190 cf         1 B0B      -0.190000
      6 C11         -1.5500    -1.3780     0.4310 c2         1 B0B      -0.079400
      7 C12         -0.0740    -1.0430     0.7110 c5         1 B0B      -0.038500
      8 C13          0.7920    -1.3730    -0.5550 c5         1 B0B      -0.027000
      9 C14          0.6580    -2.9110    -0.8210 c6         1 B0B      -0.063400
     10 C15         -0.8200    -3.3500    -1.0290 c6         1 B0B      -0.072400
     11 C1          -6.9680     2.3670     0.1230 c6         1 B0B      -0.070400
     12 C2          -5.4820     2.6830     0.4140 c6         1 B0B      -0.038200
     13 C3          -4.8150     1.5280     1.1670 ce         1 B0B      -0.078200
     14 O9          -8.5070     0.7140    -0.8050 oh         1 B0B      -0.659000
     15 C16         -1.7530    -2.8650     0.1110 c6         1 B0B      -0.041200
     16 C17          2.2080    -0.9010     0.0720 c5         1 B0B      -0.082700
     17 C18          1.8240     0.4750     0.7490 c5         1 B0B      -0.077400
     18 C19          0.2750     0.4480     0.9620 c5         1 B0B      -0.070400
     19 C20          3.5710    -0.8350    -0.7950 c3         1 B0B       0.201000
     20 C21          4.8330    -0.3740     0.0550 c3         1 B0B      -0.105400
     21 C22          3.8640    -2.1940    -1.4800 c3         1 B0B      -0.081100
     22 C23          6.1760    -0.1710    -0.6960 c3         1 B0B      -0.034200
     23 O24          3.4030     0.1220    -1.8460 oh         1 B0B      -0.659000
     24 C25          7.2360     0.4380     0.2040 c2         1 B0B      -0.226200
     25 C26          7.4640     1.7460     0.4330 c2         1 B0B      -0.112400
     26 C27          6.6640     2.8970    -0.1600 c3         1 B0B      -0.056400
     27 C28          8.5780     2.2290     1.3430 c3         1 B0B      -0.056400
     28 C29          0.3380    -0.6080    -1.8720 c3         1 B0B      -0.074100
     29 H1          -6.5240    -1.0750    -0.3310 hc         1 B0B       0.052700
     30 H2          -6.9960    -0.2770     1.1640 hc         1 B0B       0.052700
     31 H3          -6.6090     1.0740    -1.5710 h1         1 B0B       0.031700
     32 H4          -4.2850    -1.6370    -0.1640 ha         1 B0B       0.167000
     33 H5          -3.7250     0.8840     2.8820 ha         1 B0B       0.166500
     34 H6          -4.0770     2.7020     2.7930 ha         1 B0B       0.166500
     35 H7          -2.3100     0.5580     0.7930 ha         1 B0B       0.178000
     36 H8           0.2370    -1.6390     1.5810 hc         1 B0B       0.050700
     37 H9           1.2280    -3.2140    -1.7050 hc         1 B0B       0.040200
     38 H10          1.0820    -3.4700     0.0240 hc         1 B0B       0.040200
     39 H11         -1.1930    -2.9740    -1.9910 hc         1 B0B       0.040700
     40 H12         -0.8700    -4.4450    -1.1010 hc         1 B0B       0.040700
     41 H13         -7.4060     3.1670    -0.4880 hc         1 B0B       0.054700
     42 H14         -7.5290     2.3500     1.0680 hc         1 B0B       0.054700
     43 H15         -4.9460     2.8580    -0.5300 hc         1 B0B       0.048700
     44 H16         -5.4090     3.6160     0.9890 hc         1 B0B       0.048700
     45 H17         -8.5460    -0.1140    -1.3320 ho         1 B0B       0.442000
     46 H18         -1.5350    -3.4460     1.0180 hc         1 B0B       0.046200
     47 H19         -2.7870    -3.1100    -0.1500 hc         1 B0B       0.046200
     48 H20          2.4620    -1.6030     0.8760 hc         1 B0B       0.046700
     49 H21          2.3510     0.5980     1.7020 hc         1 B0B       0.037700
     50 H22          2.1000     1.3380     0.1330 hc         1 B0B       0.037700
     51 H23         -0.2170     1.1200     0.2520 hc         1 B0B       0.046700
     52 H24         -0.0110     0.7770     1.9670 hc         1 B0B       0.046700
     53 H25          4.5890     0.5710     0.5540 hc         1 B0B       0.042700
     54 H26          4.9940    -1.1010     0.8600 hc         1 B0B       0.042700
     55 H27          3.1320    -2.4000    -2.2650 hc         1 B0B       0.043033
     56 H28          4.8400    -2.2060    -1.9730 hc         1 B0B       0.043033
     57 H29          3.8380    -3.0100    -0.7480 hc         1 B0B       0.043033
     58 H30          6.5460    -1.1320    -1.0710 hc         1 B0B       0.050200
     59 H31          6.0220     0.4560    -1.5820 hc         1 B0B       0.050200
     60 H32          3.5970     1.0010    -1.4620 ho         1 B0B       0.440000
     61 H33          7.8680    -0.3090     0.6870 ha         1 B0B       0.163000
     62 H34          6.2460     3.5310     0.6310 hc         1 B0B       0.038533
     63 H35          7.2980     3.5300    -0.7920 hc         1 B0B       0.038533
     64 H36          5.8230     2.5600    -0.7750 hc         1 B0B       0.038533
     65 H37          9.2840     2.8680     0.7980 hc         1 B0B       0.038533
     66 H38          8.1790     2.8110     2.1820 hc         1 B0B       0.038533
     67 H39          9.1500     1.3940     1.7650 hc         1 B0B       0.038533
     68 H40          0.8760    -0.9870    -2.7480 hc         1 B0B       0.037367
     69 H41         -0.7340    -0.7160    -2.0730 hc         1 B0B       0.037367
     70 H42          0.5450     0.4660    -1.8190 hc         1 B0B       0.037367
     71 C8          -4.1720     1.7160     2.3390 c2         1 B0B      -0.310000
@<TRIPOS>BOND
     1     1     2 1   
     2     1     4 2   
     3     1    13 1   
     4     2     3 1   
     5     2    29 1   
     6     2    30 1   
     7     3    11 1   
     8     3    14 1   
     9     3    31 1   
    10     4     5 1   
    11     4    32 1   
    12     5     6 2   
    13     5    35 1   
    14     6     7 1   
    15     6    15 1   
    16     7     8 1   
    17     7    18 1   
    18     7    36 1   
    19     8     9 1   
    20     8    16 1   
    21     8    28 1   
    22     9    10 1   
    23     9    37 1   
    24     9    38 1   
    25    10    15 1   
    26    10    39 1   
    27    10    40 1   
    28    11    12 1   
    29    11    41 1   
    30    11    42 1   
    31    12    13 1   
    32    12    43 1   
    33    12    44 1   
    34    13    71 2   
    35    14    45 1   
    36    15    46 1   
    37    15    47 1   
    38    16    17 1   
    39    16    19 1   
    40    16    48 1   
    41    17    18 1   
    42    17    49 1   
    43    17    50 1   
    44    18    51 1   
    45    18    52 1   
    46    19    20 1   
    47    19    21 1   
    48    19    23 1   
    49    20    22 1   
    50    20    53 1   
    51    20    54 1   
    52    21    55 1   
    53    21    56 1   
    54    21    57 1   
    55    22    24 1   
    56    22    58 1   
    57    22    59 1   
    58    23    60 1   
    59    24    25 2   
    60    24    61 1   
    61    25    26 1   
    62    25    27 1   
    63    26    62 1   
    64    26    63 1   
    65    26    64 1   
    66    27    65 1   
    67    27    66 1   
    68    27    67 1   
    69    28    68 1   
    70    28    69 1   
    71    28    70 1   
    72    33    71 1   
    73    34    71 1   
@<TRIPOS>SUBSTRUCTURE
     1 B0B         1 TEMP              0 ****  ****    0 ROOT
