@<TRIPOS>MOLECULE
B0B
   71    73     1     0     0
SMALL
abcg2


@<TRIPOS>ATOM
      1 C4          -4.9650     0.1200     0.6290 ce         1 B0B      -0.076200
      2 C5          -6.3780    -0.2720     0.2900 c6         1 B0B      -0.074200
      3 C6          -7.0140     0.7350    -0.6730 c6         1 B0B       0.173300
      4 C7          -3.9410    -0.7320     0.4390 cf         1 B0B      -0.165000
      5 C10         -2.5330    -0.4480     0.6380 cf         1 B0B      -0.190000
      6 C11         -1.5240    -1.3280     0.5340 c2         1 B0B      -0.079400
      7 C12         -0.0910    -0.9490     0.7370 c5         1 B0B      -0.038500
      8 C13          0.7950    -1.2630    -0.4980 c5         1 B0B      -0.027000
      9 C14          0.6890    -2.7690    -0.7600 c6         1 B0B      -0.063400
     10 C15         -0.7620    -3.2210    -0.9300 c6         1 B0B      -0.072400
     11 C1          -6.9580     2.1310    -0.0760 c6         1 B0B      -0.070400
     12 C2          -5.5180     2.5320     0.2440 c6         1 B0B      -0.038200
     13 C3          -4.8320     1.5090     1.1120 ce         1 B0B      -0.078200
     14 O9          -8.3650     0.4240    -0.9390 oh         1 B0B      -0.659000
     15 C16         -1.6670    -2.7930     0.2300 c6         1 B0B      -0.041200
     16 C17          2.1620    -0.7700     0.0430 c5         1 B0B      -0.082700
     17 C18          1.8120     0.5080     0.8550 c5         1 B0B      -0.077400
     18 C19          0.2950     0.4690     1.1210 c5         1 B0B      -0.070400
     19 C20          3.3850    -0.5940    -0.8900 c3         1 B0B       0.201000
     20 C21          4.6030    -0.2660    -0.0000 c3         1 B0B      -0.105400
     21 C22          3.6530    -1.8560    -1.7030 c3         1 B0B      -0.081100
     22 C23          5.9200    -0.0170    -0.7400 c3         1 B0B      -0.034200
     23 O24          3.1980     0.4370    -1.8480 oh         1 B0B      -0.659000
     24 C25          7.0100     0.3580     0.2170 c2         1 B0B      -0.226200
     25 C26          7.5640     1.5590     0.4050 c2         1 B0B      -0.112400
     26 C27          7.1930     2.7990    -0.3530 c3         1 B0B      -0.056400
     27 C28          8.6300     1.7610     1.4430 c3         1 B0B      -0.056400
     28 C29          0.3200    -0.4710    -1.7200 c3         1 B0B      -0.074100
     29 H1          -6.3980    -1.2770    -0.1420 hc         1 B0B       0.052700
     30 H2          -6.9870    -0.2950     1.2020 hc         1 B0B       0.052700
     31 H3          -6.4280     0.7330    -1.6050 h1         1 B0B       0.031700
     32 H4          -4.2020    -1.7190     0.0700 ha         1 B0B       0.167000
     33 H5          -3.7440     1.0880     2.8770 ha         1 B0B       0.166500
     34 H6          -4.1520     2.8630     2.5800 ha         1 B0B       0.166500
     35 H7          -2.2880     0.5780     0.8860 ha         1 B0B       0.178000
     36 H8           0.2860    -1.6060     1.5370 hc         1 B0B       0.050700
     37 H9           1.2500    -3.0650    -1.6470 hc         1 B0B       0.040200
     38 H10          1.1380    -3.3070     0.0840 hc         1 B0B       0.040200
     39 H11         -1.1680    -2.8270    -1.8660 hc         1 B0B       0.040700
     40 H12         -0.7940    -4.3090    -1.0250 hc         1 B0B       0.040700
     41 H13         -7.3960     2.8530    -0.7700 hc         1 B0B       0.054700
     42 H14         -7.5610     2.1540     0.8380 hc         1 B0B       0.054700
     43 H15         -4.9630     2.6220    -0.6970 hc         1 B0B       0.048700
     44 H16         -5.4950     3.5140     0.7190 hc         1 B0B       0.048700
     45 H17         -8.3950    -0.4300    -1.3820 ho         1 B0B       0.442000
     46 H18         -1.3750    -3.3560     1.1250 hc         1 B0B       0.046200
     47 H19         -2.6970    -3.0740     0.0120 hc         1 B0B       0.046200
     48 H20          2.4700    -1.5350     0.7690 hc         1 B0B       0.046700
     49 H21          2.3760     0.5330     1.7880 hc         1 B0B       0.037700
     50 H22          2.0760     1.4280     0.3280 hc         1 B0B       0.037700
     51 H23         -0.2220     1.2030     0.5000 hc         1 B0B       0.046700
     52 H24          0.0450     0.7000     2.1570 hc         1 B0B       0.046700
     53 H25          4.3820     0.6260     0.5950 hc         1 B0B       0.042700
     54 H26          4.7390    -1.0760     0.7230 hc         1 B0B       0.042700
     55 H27          2.8600    -2.0380    -2.4260 hc         1 B0B       0.043033
     56 H28          4.5840    -1.7800    -2.2650 hc         1 B0B       0.043033
     57 H29          3.7250    -2.7290    -1.0540 hc         1 B0B       0.043033
     58 H30          6.2260    -0.9240    -1.2680 hc         1 B0B       0.050200
     59 H31          5.7720     0.7500    -1.5010 hc         1 B0B       0.050200
     60 H32          3.0720     1.2720    -1.3850 ho         1 B0B       0.440000
     61 H33          7.3600    -0.4550     0.8500 ha         1 B0B       0.163000
     62 H34          6.7740     3.5500     0.3220 hc         1 B0B       0.038533
     63 H35          8.0770     3.2540    -0.8070 hc         1 B0B       0.038533
     64 H36          6.4660     2.6250    -1.1430 hc         1 B0B       0.038533
     65 H37          9.5510     2.1420     0.9930 hc         1 B0B       0.038533
     66 H38          8.3220     2.5010     2.1860 hc         1 B0B       0.038533
     67 H39          8.8700     0.8360     1.9680 hc         1 B0B       0.038533
     68 H40          0.8630    -0.7700    -2.6170 hc         1 B0B       0.037367
     69 H41         -0.7420    -0.6330    -1.9050 hc         1 B0B       0.037367
     70 H42          0.4620     0.6030    -1.6020 hc         1 B0B       0.037367
     71 C8          -4.2080     1.8340     2.2440 c2         1 B0B      -0.310000
@<TRIPOS>BOND
     1     1     2 1   
     2     1     4 2   
     3     1    13 1   
     4     2     3 1   
     5     2    29 1   
     6     2    30 1   
     7     3    11 1   
     8     3    14 1   
     9     3    31 1   
    10     4     5 1   
    11     4    32 1   
    12     5     6 2   
    13     5    35 1   
    14     6     7 1   
    15     6    15 1   
    16     7     8 1   
    17     7    18 1   
    18     7    36 1   
    19     8     9 1   
    20     8    16 1   
    21     8    28 1   
    22     9    10 1   
    23     9    37 1   
    24     9    38 1   
    25    10    15 1   
    26    10    39 1   
    27    10    40 1   
    28    11    12 1   
    29    11    41 1   
    30    11    42 1   
    31    12    13 1   
    32    12    43 1   
    33    12    44 1   
    34    13    71 2   
    35    14    45 1   
    36    15    46 1   
    37    15    47 1   
    38    16    17 1   
    39    16    19 1   
    40    16    48 1   
    41    17    18 1   
    42    17    49 1   
    43    17    50 1   
    44    18    51 1   
    45    18    52 1   
    46    19    20 1   
    47    19    21 1   
    48    19    23 1   
    49    20    22 1   
    50    20    53 1   
    51    20    54 1   
    52    21    55 1   
    53    21    56 1   
    54    21    57 1   
    55    22    24 1   
    56    22    58 1   
    57    22    59 1   
    58    23    60 1   
    59    24    25 2   
    60    24    61 1   
    61    25    26 1   
    62    25    27 1   
    63    26    62 1   
    64    26    63 1   
    65    26    64 1   
    66    27    65 1   
    67    27    66 1   
    68    27    67 1   
    69    28    68 1   
    70    28    69 1   
    71    28    70 1   
    72    33    71 1   
    73    34    71 1   
@<TRIPOS>SUBSTRUCTURE
     1 B0B         1 TEMP              0 ****  ****    0 ROOT
