@<TRIPOS>MOLECULE
B0C
   67    69     1     0     0
SMALL
No Charge or Current Charge


@<TRIPOS>ATOM
      1 N           -5.9440     0.6670     0.2510 n3         1 B0C      -0.699600
      2 CA          -4.5070     0.9300     0.5960 c3         1 B0C       0.090800
      3 C           -3.5180    -0.2740     0.6850 c          1 B0C       0.602100
      4 O           -3.8890    -1.4310     0.8700 o          1 B0C      -0.556100
      5 CAA          4.7050    -5.8780     0.6250 c3         1 B0C      -0.090100
      6 CAB          6.6660    -0.7760    -1.5120 c3         1 B0C      -0.085100
      7 CAC          5.9780     3.8920    -0.7620 c3         1 B0C      -0.086100
      8 CAD         -9.9070     0.7320    -1.6100 c3         1 B0C       0.154100
      9 CAG         -0.9180    -2.0550     0.6330 ca         1 B0C      -0.070000
     10 CAH          0.3190    -2.7200     0.6220 ca         1 B0C      -0.184000
     11 CAI          0.2320     0.0720     0.4320 ca         1 B0C      -0.115000
     12 CAJ          4.4040    -4.3680     0.5690 c3         1 B0C      -0.081400
     13 CAN         -8.3050     1.5880     0.0740 c6         1 B0C       0.164300
     14 CAO         -7.6290    -0.2230    -1.4310 c6         1 B0C       0.164300
     15 CAP         -6.8050     1.8810     0.3950 c6         1 B0C       0.165800
     16 CAQ         -6.1280     0.0690    -1.1100 c6         1 B0C       0.165800
     17 CAX         -0.9710    -0.6480     0.5410 ca         1 B0C      -0.058000
     18 CAY          4.7100     0.6900    -0.7970 cc         1 B0C       0.191400
     19 CAZ          1.5250    -1.9940     0.5140 ca         1 B0C       0.176100
     20 CBA          1.4820    -0.5860     0.4180 ca         1 B0C      -0.167900
     21 CBB          2.7140     0.2060     0.2800 cd         1 B0C       0.566500
     22 CBC          4.9490     1.7290     0.0960 cd         1 B0C      -0.252400
     23 CBD          3.9700     2.0400     1.1630 c          1 B0C       0.559200
     24 NAS          3.5630    -0.0760    -0.7010 nc         1 B0C      -0.624300
     25 NAT         -2.1850     0.0980     0.5410 ns         1 B0C      -0.151000
     26 NAU          2.8980     1.2230     1.1570 ns         1 B0C      -0.406400
     27 NBE         -8.4890     0.9910    -1.2850 n3         1 B0C      -0.720600
     28 OAF          4.0780     2.9350     1.9870 o          1 B0C      -0.557000
     29 OAV          2.7550    -2.6240     0.5400 os         1 B0C      -0.329100
     30 H2          -4.0860     1.6350    -0.1340 h1         1 B0C       0.047700
     31 H3          -4.4510     1.4300     1.5720 h1         1 B0C       0.047700
     32 H4           4.3070    -6.3190     1.5470 hc         1 B0C       0.036700
     33 H5           4.2540    -6.3960    -0.2300 hc         1 B0C       0.036700
     34 H6           5.7870    -6.0540     0.6000 hc         1 B0C       0.036700
     35 H7           7.2950    -0.4160    -0.6900 hc         1 B0C       0.038033
     36 H8           6.1580    -1.6900    -1.1820 hc         1 B0C       0.038033
     37 H9           7.3160    -1.0300    -2.3580 hc         1 B0C       0.038033
     38 H10          6.8910     4.4990    -0.7670 hc         1 B0C       0.034700
     39 H11          5.7240     3.6430    -1.7990 hc         1 B0C       0.034700
     40 H12          5.1650     4.4980    -0.3430 hc         1 B0C       0.034700
     41 H13        -10.3400    -0.0040    -0.9190 h1         1 B0C       0.031367
     42 H14        -10.4960     1.6570    -1.5420 h1         1 B0C       0.031367
     43 H15        -10.0050     0.3430    -2.6330 h1         1 B0C       0.031367
     44 H16         -1.8210    -2.6530     0.7130 ha         1 B0C       0.152000
     45 H17          0.3200    -3.8030     0.7030 ha         1 B0C       0.126000
     46 H18          0.1960     1.1570     0.3440 ha         1 B0C       0.115000
     47 H19          4.8930    -3.8720     1.4160 hc         1 B0C       0.057200
     48 H20          4.8400    -3.9490    -0.3470 hc         1 B0C       0.057200
     49 H21          6.1670     1.1740    -2.3140 hc         1 B0C       0.058700
     50 H22          5.0540    -0.0880    -2.7700 hc         1 B0C       0.058700
     51 H23          7.0490     2.0670    -0.3320 hc         1 B0C       0.051700
     52 H24          6.4860     2.8980     1.0860 hc         1 B0C       0.051700
     53 H25          2.4040    -4.5270    -0.2590 h1         1 B0C       0.035700
     54 H26          2.4560    -4.4480     1.5240 h1         1 B0C       0.035700
     55 H27         -8.7000     0.9070     0.8420 h1         1 B0C       0.041700
     56 H28         -8.8720     2.5270     0.1570 h1         1 B0C       0.041700
     57 H29         -7.6980    -0.6180    -2.4560 h1         1 B0C       0.041700
     58 H30         -7.9810    -1.0190    -0.7570 h1         1 B0C       0.041700
     59 H31         -6.7370     2.2760     1.4200 h1         1 B0C       0.039200
     60 H32         -6.4520     2.6760    -0.2790 h1         1 B0C       0.039200
     61 H33         -5.7340     0.7520    -1.8780 h1         1 B0C       0.039200
     62 H34         -5.5670    -0.8720    -1.1990 h1         1 B0C       0.039200
     63 H35         -2.0490     1.0920     0.4080 hn         1 B0C       0.149000
     64 H36          2.2100     1.3890     1.8740 hn         1 B0C       0.330500
     65 CAK          5.6380     0.2970    -1.9250 c3         1 B0C      -0.033200
     66 CAL          6.1870     2.6120     0.0700 c3         1 B0C      -0.014200
     67 CAM          2.8960    -4.0520     0.6000 c3         1 B0C       0.163600
@<TRIPOS>BOND
     1     1     2 1   
     2     1    15 1   
     3     1    16 1   
     4     2     3 1   
     5     2    30 1   
     6     2    31 1   
     7     3     4 2   
     8     3    25 1   
     9     5    12 1   
    10     5    32 1   
    11     5    33 1   
    12     5    34 1   
    13     6    35 1   
    14     6    36 1   
    15     6    37 1   
    16     6    65 1   
    17     7    38 1   
    18     7    39 1   
    19     7    40 1   
    20     7    66 1   
    21     8    27 1   
    22     8    41 1   
    23     8    42 1   
    24     8    43 1   
    25     9    10 ar  
    26     9    17 ar  
    27     9    44 1   
    28    10    19 ar  
    29    10    45 1   
    30    11    17 ar  
    31    11    20 ar  
    32    11    46 1   
    33    12    47 1   
    34    12    48 1   
    35    12    67 1   
    36    13    15 1   
    37    13    27 1   
    38    13    55 1   
    39    13    56 1   
    40    14    16 1   
    41    14    27 1   
    42    14    57 1   
    43    14    58 1   
    44    15    59 1   
    45    15    60 1   
    46    16    61 1   
    47    16    62 1   
    48    17    25 1   
    49    18    22 2   
    50    18    24 1   
    51    18    65 1   
    52    19    20 ar  
    53    19    29 1   
    54    20    21 1   
    55    21    24 2   
    56    21    26 1   
    57    22    23 1   
    58    22    66 1   
    59    23    26 1   
    60    23    28 2   
    61    25    63 1   
    62    26    64 1   
    63    29    67 1   
    64    49    65 1   
    65    50    65 1   
    66    51    66 1   
    67    52    66 1   
    68    53    67 1   
    69    54    67 1   
@<TRIPOS>SUBSTRUCTURE
     1 B0C         1 TEMP              0 ****  ****    0 ROOT
