@<TRIPOS>MOLECULE
B0C
   67    69     1     0     0
SMALL
abcg2


@<TRIPOS>ATOM
      1 N           -5.7590     0.5880     0.2490 n3         1 B0C      -0.699600
      2 CA          -4.4390     0.9330     0.7000 c3         1 B0C       0.090800
      3 C           -3.4690    -0.2350     0.5910 c          1 B0C       0.602100
      4 O           -3.8220    -1.3930     0.7090 o          1 B0C      -0.556100
      5 CAA          4.4140    -5.8190     0.8900 c3         1 B0C      -0.090100
      6 CAB          6.5190    -0.8470    -1.3840 c3         1 B0C      -0.085100
      7 CAC          5.8630     3.8850    -0.9320 c3         1 B0C      -0.086100
      8 CAD         -9.5470     0.6640    -1.5840 c3         1 B0C       0.154100
      9 CAG         -0.9740    -1.9990     0.4870 ca         1 B0C      -0.070000
     10 CAH          0.2440    -2.6670     0.4910 ca         1 B0C      -0.184000
     11 CAI          0.1910     0.0790     0.3080 ca         1 B0C      -0.115000
     12 CAJ          4.2240    -4.3190     0.7150 c3         1 B0C      -0.081400
     13 CAN         -8.1430     1.0910     0.3090 c6         1 B0C       0.164300
     14 CAO         -7.2260     0.0750    -1.6330 c6         1 B0C       0.164300
     15 CAP         -6.7560     1.5190     0.7470 c6         1 B0C       0.165800
     16 CAQ         -5.8340     0.4890    -1.1970 c6         1 B0C       0.165800
     17 CAX         -1.0160    -0.6110     0.4040 ca         1 B0C      -0.058000
     18 CAY          4.6380     0.7010    -0.8490 cc         1 B0C       0.191400
     19 CAZ          1.4490    -1.9800     0.3990 ca         1 B0C       0.176100
     20 CBA          1.4100    -0.5820     0.2890 ca         1 B0C      -0.167900
     21 CBB          2.6540     0.2030     0.1570 cd         1 B0C       0.566500
     22 CBC          4.8880     1.7560    -0.0140 cd         1 B0C      -0.252400
     23 CBD          3.9120     2.0840     0.9970 c          1 B0C       0.559200
     24 NAS          3.5150    -0.0720    -0.7640 nc         1 B0C      -0.624300
     25 NAT         -2.1860     0.1570     0.4030 ns         1 B0C      -0.151000
     26 NAU          2.8230     1.2280     1.0200 ns         1 B0C      -0.406400
     27 NBE         -8.2180     1.0060    -1.1350 n3         1 B0C      -0.720600
     28 OAF          3.9850     3.0050     1.8000 o          1 B0C      -0.557000
     29 OAV          2.6580    -2.5550     0.4400 os         1 B0C      -0.329100
     30 H2          -4.0340     1.8220     0.1880 h1         1 B0C       0.047700
     31 H3          -4.4850     1.1920     1.7630 h1         1 B0C       0.047700
     32 H4           3.9040    -6.1820     1.7840 hc         1 B0C       0.036700
     33 H5           4.0230    -6.3740     0.0360 hc         1 B0C       0.036700
     34 H6           5.4700    -6.0670     0.9890 hc         1 B0C       0.036700
     35 H7           7.1470    -0.4810    -0.5710 hc         1 B0C       0.038033
     36 H8           5.9380    -1.6900    -1.0060 hc         1 B0C       0.038033
     37 H9           7.1710    -1.2150    -2.1750 hc         1 B0C       0.038033
     38 H10          6.7540     4.5130    -0.9530 hc         1 B0C       0.034700
     39 H11          5.6060     3.6330    -1.9620 hc         1 B0C       0.034700
     40 H12          5.0460     4.4780    -0.5200 hc         1 B0C       0.034700
     41 H13         -9.8830    -0.3250    -1.2370 h1         1 B0C       0.031367
     42 H14        -10.2640     1.4030    -1.2220 h1         1 B0C       0.031367
     43 H15         -9.5870     0.6650    -2.6740 h1         1 B0C       0.031367
     44 H16         -1.8780    -2.5810     0.5550 ha         1 B0C       0.152000
     45 H17          0.2260    -3.7450     0.5720 ha         1 B0C       0.126000
     46 H18          0.1760     1.1600     0.2280 ha         1 B0C       0.115000
     47 H19          4.6690    -3.7860     1.5590 hc         1 B0C       0.057200
     48 H20          4.7420    -3.9800    -0.1860 hc         1 B0C       0.057200
     49 H21          6.1930     1.0930    -2.2790 hc         1 B0C       0.058700
     50 H22          5.0250    -0.1230    -2.7560 hc         1 B0C       0.058700
     51 H23          6.9440     2.0680    -0.5140 hc         1 B0C       0.051700
     52 H24          6.4080     2.9170     0.9100 hc         1 B0C       0.051700
     53 H25          2.2890    -4.4860    -0.2230 h1         1 B0C       0.035700
     54 H26          2.2320    -4.2660     1.5320 h1         1 B0C       0.035700
     55 H27         -8.3950     0.1280     0.7890 h1         1 B0C       0.041700
     56 H28         -8.8710     1.8250     0.6630 h1         1 B0C       0.041700
     57 H29         -7.2660     0.0580    -2.7250 h1         1 B0C       0.041700
     58 H30         -7.4220    -0.9560    -1.2870 h1         1 B0C       0.041700
     59 H31         -6.7130     1.5360     1.8380 h1         1 B0C       0.039200
     60 H32         -6.5680     2.5480     0.3970 h1         1 B0C       0.039200
     61 H33         -5.5690     1.4470    -1.6780 h1         1 B0C       0.039200
     62 H34         -5.1210    -0.2570    -1.5520 h1         1 B0C       0.039200
     63 H35         -2.0410     1.1490     0.2910 hn         1 B0C       0.149000
     64 H36          2.1330     1.3810     1.7450 hn         1 B0C       0.330500
     65 CAK          5.6000     0.2570    -1.9100 c3         1 B0C      -0.033200
     66 CAL          6.1060     2.6270    -0.0980 c3         1 B0C      -0.014200
     67 CAM          2.7560    -3.9600     0.6190 c3         1 B0C       0.163600
@<TRIPOS>BOND
     1     1     2 1   
     2     1    15 1   
     3     1    16 1   
     4     2     3 1   
     5     2    30 1   
     6     2    31 1   
     7     3     4 2   
     8     3    25 1   
     9     5    12 1   
    10     5    32 1   
    11     5    33 1   
    12     5    34 1   
    13     6    35 1   
    14     6    36 1   
    15     6    37 1   
    16     6    65 1   
    17     7    38 1   
    18     7    39 1   
    19     7    40 1   
    20     7    66 1   
    21     8    27 1   
    22     8    41 1   
    23     8    42 1   
    24     8    43 1   
    25     9    10 ar  
    26     9    17 ar  
    27     9    44 1   
    28    10    19 ar  
    29    10    45 1   
    30    11    17 ar  
    31    11    20 ar  
    32    11    46 1   
    33    12    47 1   
    34    12    48 1   
    35    12    67 1   
    36    13    15 1   
    37    13    27 1   
    38    13    55 1   
    39    13    56 1   
    40    14    16 1   
    41    14    27 1   
    42    14    57 1   
    43    14    58 1   
    44    15    59 1   
    45    15    60 1   
    46    16    61 1   
    47    16    62 1   
    48    17    25 1   
    49    18    22 2   
    50    18    24 1   
    51    18    65 1   
    52    19    20 ar  
    53    19    29 1   
    54    20    21 1   
    55    21    24 2   
    56    21    26 1   
    57    22    23 1   
    58    22    66 1   
    59    23    26 1   
    60    23    28 2   
    61    25    63 1   
    62    26    64 1   
    63    29    67 1   
    64    49    65 1   
    65    50    65 1   
    66    51    66 1   
    67    52    66 1   
    68    53    67 1   
    69    54    67 1   
@<TRIPOS>SUBSTRUCTURE
     1 B0C         1 TEMP              0 ****  ****    0 ROOT
