@<TRIPOS>MOLECULE
B0D
   23    23     1     0     0
SMALL
No Charge or Current Charge


@<TRIPOS>ATOM
      1 F1          -2.3570    -1.7170    -0.2930 f          1 B0D      -0.244000
      2 F2           1.2010    -0.8010     1.4340 f          1 B0D      -0.261000
      3 CX1         -1.3560    -0.9020     0.2720 c6         1 B0D       0.407300
      4 CX2         -1.7500     0.5990     0.0320 c6         1 B0D       0.086300
      5 OX2         -1.9500     0.8890    -1.3790 oh         1 B0D      -0.693000
      6 CX3         -0.6030     1.4980     0.6000 c6         1 B0D       0.131300
      7 OX3         -0.5360     1.3880     2.0330 oh         1 B0D      -0.641000
      8 CX4          0.7570     1.0960    -0.0790 c6         1 B0D       0.144300
      9 OX4          0.6720     1.4840    -1.4740 oh         1 B0D      -0.690000
     10 CX5          1.0100    -0.4600     0.0750 c6         1 B0D       0.452000
     11 OX5         -0.1250    -1.2180    -0.4130 os         1 B0D      -0.479000
     12 CX6          2.2850    -0.9610    -0.6990 c3         1 B0D       0.159600
     13 OX6          3.5310    -0.3460    -0.2800 oh         1 B0D      -0.713000
     14 HX1         -1.2870    -1.1350     1.3460 h2         1 B0D       0.069700
     15 HX2         -2.6740     0.8130     0.5900 h1         1 B0D       0.040700
     16 HOX2        -2.7180     0.3430    -1.6800 ho         1 B0D       0.520000
     17 HX3         -0.8190     2.5440     0.3350 h1         1 B0D       0.051700
     18 HOX3        -1.2030     2.0090     2.4050 ho         1 B0D       0.449000
     19 HX4          1.5790     1.6340     0.4160 h1         1 B0D       0.082700
     20 HOX4        -0.2800     1.3030    -1.7140 ho         1 B0D       0.512000
     21 HX6          2.3420    -2.0500    -0.5660 h1         1 B0D       0.051200
     22 HX6A         2.1190    -0.7820    -1.7700 h1         1 B0D       0.051200
     23 HOX6         4.2500    -0.7430    -0.8290 ho         1 B0D       0.514000
@<TRIPOS>BOND
     1     1     3 1   
     2     2    10 1   
     3     3     4 1   
     4     3    11 1   
     5     3    14 1   
     6     4     5 1   
     7     4     6 1   
     8     4    15 1   
     9     5    16 1   
    10     6     7 1   
    11     6     8 1   
    12     6    17 1   
    13     7    18 1   
    14     8     9 1   
    15     8    10 1   
    16     8    19 1   
    17     9    20 1   
    18    10    11 1   
    19    10    12 1   
    20    12    13 1   
    21    12    21 1   
    22    12    22 1   
    23    13    23 1   
@<TRIPOS>SUBSTRUCTURE
     1 B0D         1 TEMP              0 ****  ****    0 ROOT
