@<TRIPOS>MOLECULE
B0D
   23    23     1     0     0
SMALL
abcg2


@<TRIPOS>ATOM
      1 F1          -2.1810    -1.8420    -0.2110 f          1 B0D      -0.244000
      2 F2           1.2720    -0.6640     1.4140 f          1 B0D      -0.261000
      3 CX1         -1.3050    -0.9390     0.3330 c6         1 B0D       0.407300
      4 CX2         -1.7630     0.4790     0.0440 c6         1 B0D       0.086300
      5 OX2         -2.0150     0.6860    -1.3180 oh         1 B0D      -0.693000
      6 CX3         -0.6560     1.4430     0.4900 c6         1 B0D       0.131300
      7 OX3         -0.5410     1.4440     1.8910 oh         1 B0D      -0.641000
      8 CX4          0.7170     1.0580    -0.0840 c6         1 B0D       0.144300
      9 OX4          0.8030     1.3410    -1.4530 oh         1 B0D      -0.690000
     10 CX5          0.9940    -0.4430     0.0700 c6         1 B0D       0.452000
     11 OX5         -0.0880    -1.2280    -0.2870 os         1 B0D      -0.479000
     12 CX6          2.1720    -0.9630    -0.7380 c3         1 B0D       0.159600
     13 OX6          3.2990    -0.1900    -0.4270 oh         1 B0D      -0.713000
     14 HX1         -1.2660    -1.1270     1.4090 h2         1 B0D       0.069700
     15 HX2         -2.6580     0.6820     0.6520 h1         1 B0D       0.040700
     16 HOX2        -2.7930     0.1790    -1.5710 ho         1 B0D       0.520000
     17 HX3         -0.9070     2.4450     0.1140 h1         1 B0D       0.051700
     18 HOX3        -1.3560     1.7920     2.2660 ho         1 B0D       0.449000
     19 HX4          1.4820     1.5990     0.4870 h1         1 B0D       0.082700
     20 HOX4         0.5840     2.2670    -1.5930 ho         1 B0D       0.512000
     21 HX6          2.3130    -2.0190    -0.4720 h1         1 B0D       0.051200
     22 HX6A         1.9170    -0.9270    -1.8020 h1         1 B0D       0.051200
     23 HOX6         4.0630    -0.5890    -0.8530 ho         1 B0D       0.514000
@<TRIPOS>BOND
     1     1     3 1   
     2     2    10 1   
     3     3     4 1   
     4     3    11 1   
     5     3    14 1   
     6     4     5 1   
     7     4     6 1   
     8     4    15 1   
     9     5    16 1   
    10     6     7 1   
    11     6     8 1   
    12     6    17 1   
    13     7    18 1   
    14     8     9 1   
    15     8    10 1   
    16     8    19 1   
    17     9    20 1   
    18    10    11 1   
    19    10    12 1   
    20    12    13 1   
    21    12    21 1   
    22    12    22 1   
    23    13    23 1   
@<TRIPOS>SUBSTRUCTURE
     1 B0D         1 TEMP              0 ****  ****    0 ROOT
