@<TRIPOS>MOLECULE
B0E
   25    27     1     0     0
SMALL
No Charge or Current Charge


@<TRIPOS>ATOM
      1 C4           2.7040     1.2840     0.0200 ca         1 B0E      -0.285000
      2 C5           1.3230     1.5290    -0.0060 ca         1 B0E       0.232100
      3 C6           0.3770     0.4500     0.0080 ca         1 B0E      -0.179000
      4 C11         -3.2530    -0.5620    -0.0180 ca         1 B0E      -0.043000
      5 C7          -1.0580     0.5680    -0.0160 ca         1 B0E       0.057000
      6 C8          -1.7730     1.8000    -0.0580 ca         1 B0E      -0.112000
      7 C9          -3.1760     1.8450    -0.0800 ca         1 B0E      -0.075000
      8 C10         -3.9190     0.6650    -0.0600 ca         1 B0E      -0.130000
      9 C12         -1.8400    -0.6210     0.0040 ca         1 B0E      -0.206600
     10 C3           3.1980    -0.0130     0.0610 ca         1 B0E       0.226100
     11 C           -1.1980    -1.9760     0.0480 c          1 B0E       0.689700
     12 O           -1.8380    -3.0200     0.0660 o          1 B0E      -0.486000
     13 C1           0.9320    -0.8570     0.0500 ca         1 B0E       0.237100
     14 C2           2.3130    -1.0830     0.0760 ca         1 B0E      -0.273000
     15 O1           0.1570    -1.9780     0.0680 os         1 B0E      -0.341200
     16 O2           4.5400    -0.2250     0.0860 oh         1 B0E      -0.522100
     17 O3           0.9750     2.8400    -0.0450 oh         1 B0E      -0.527100
     18 H1           3.4120     2.1080     0.0090 ha         1 B0E       0.135000
     19 H2          -3.8460    -1.4750    -0.0030 ha         1 B0E       0.136000
     20 H3          -1.2940     2.7650    -0.0770 ha         1 B0E       0.136000
     21 H4          -3.6870     2.8050    -0.1130 ha         1 B0E       0.115000
     22 H5          -5.0060     0.7000    -0.0770 ha         1 B0E       0.121000
     23 H6           2.6830    -2.1040     0.1080 ha         1 B0E       0.143000
     24 H7           4.6960    -1.1920     0.1130 ho         1 B0E       0.476000
     25 H8           1.7970     3.3730    -0.0470 ho         1 B0E       0.475000
@<TRIPOS>BOND
     1     1     2 ar  
     2     1    10 ar  
     3     1    18 1   
     4     2     3 ar  
     5     2    17 1   
     6     3     5 1   
     7     3    13 ar  
     8     4     8 ar  
     9     4     9 ar  
    10     4    19 1   
    11     5     6 ar  
    12     5     9 ar  
    13     6     7 ar  
    14     6    20 1   
    15     7     8 ar  
    16     7    21 1   
    17     8    22 1   
    18     9    11 1   
    19    10    14 ar  
    20    10    16 1   
    21    11    12 2   
    22    11    15 1   
    23    13    14 ar  
    24    13    15 1   
    25    14    23 1   
    26    16    24 1   
    27    17    25 1   
@<TRIPOS>SUBSTRUCTURE
     1 B0E         1 TEMP              0 ****  ****    0 ROOT
