@<TRIPOS>MOLECULE
B0E
   25    27     1     0     0
SMALL
abcg2


@<TRIPOS>ATOM
      1 C4           2.7020     1.2560     0.0160 ca         1 B0E      -0.285000
      2 C5           1.3400     1.5050    -0.0130 ca         1 B0E       0.232100
      3 C6           0.3920     0.4540     0.0010 ca         1 B0E      -0.179000
      4 C11         -3.2290    -0.5490    -0.0180 ca         1 B0E      -0.043000
      5 C7          -1.0620     0.5880    -0.0210 ca         1 B0E       0.057000
      6 C8          -1.7610     1.8050    -0.0590 ca         1 B0E      -0.112000
      7 C9          -3.1430     1.8330    -0.0720 ca         1 B0E      -0.075000
      8 C10         -3.8910     0.6590    -0.0520 ca         1 B0E      -0.130000
      9 C12         -1.8340    -0.5890    -0.0020 ca         1 B0E      -0.206600
     10 C3           3.1800    -0.0510     0.0630 ca         1 B0E       0.226100
     11 C           -1.2030    -1.9050     0.0380 c          1 B0E       0.689700
     12 O           -1.7790    -2.9620     0.0520 o          1 B0E      -0.486000
     13 C1           0.9330    -0.8340     0.0460 ca         1 B0E       0.237100
     14 C2           2.2880    -1.1130     0.0770 ca         1 B0E      -0.273000
     15 O1           0.1400    -1.9370     0.0620 os         1 B0E      -0.341200
     16 O2           4.5060    -0.2230     0.0950 oh         1 B0E      -0.522100
     17 O3           0.8920     2.7660    -0.0540 oh         1 B0E      -0.527100
     18 H1           3.4040     2.0820     0.0070 ha         1 B0E       0.135000
     19 H2          -3.7890    -1.4740    -0.0030 ha         1 B0E       0.136000
     20 H3          -1.2330     2.7420    -0.0750 ha         1 B0E       0.136000
     21 H4          -3.6460     2.7910    -0.0990 ha         1 B0E       0.115000
     22 H5          -4.9710     0.6940    -0.0630 ha         1 B0E       0.121000
     23 H6           2.6280    -2.1400     0.1130 ha         1 B0E       0.143000
     24 H7           4.7280    -1.1600     0.1400 ho         1 B0E       0.476000
     25 H8           1.6290     3.3890    -0.0610 ho         1 B0E       0.475000
@<TRIPOS>BOND
     1     1     2 ar  
     2     1    10 ar  
     3     1    18 1   
     4     2     3 ar  
     5     2    17 1   
     6     3     5 1   
     7     3    13 ar  
     8     4     8 ar  
     9     4     9 ar  
    10     4    19 1   
    11     5     6 ar  
    12     5     9 ar  
    13     6     7 ar  
    14     6    20 1   
    15     7     8 ar  
    16     7    21 1   
    17     8    22 1   
    18     9    11 1   
    19    10    14 ar  
    20    10    16 1   
    21    11    12 2   
    22    11    15 1   
    23    13    14 ar  
    24    13    15 1   
    25    14    23 1   
    26    16    24 1   
    27    17    25 1   
@<TRIPOS>SUBSTRUCTURE
     1 B0E         1 TEMP              0 ****  ****    0 ROOT
