@<TRIPOS>MOLECULE
B0F
  117   123     1     0     0
SMALL
abcg2


@<TRIPOS>ATOM
      1 C14         -7.2760    -0.0050     0.8600 c          1 B0F       0.608100
      2 O61         -7.2770     1.1730     1.1670 o          1 B0F      -0.578100
      3 C13         -8.5470    -0.7900     0.6120 c3         1 B0F      -0.159400
      4 C12         -9.7760     0.0790     0.4050 c3         1 B0F      -0.064400
      5 C11        -11.0370    -0.7570     0.2310 c3         1 B0F      -0.078400
      6 C10        -12.2740     0.1070     0.0210 c3         1 B0F      -0.058400
      7 C02        -13.5670    -0.6840    -0.0440 c5         1 B0F       0.072300
      8 S01        -13.6410    -1.8180    -1.4710 ss         1 B0F      -0.409000
      9 C09        -15.4010    -2.0790    -1.1320 c5         1 B0F       0.029600
     10 C04        -15.9760    -0.7090    -0.7540 c5         1 B0F       0.101700
     11 N05        -16.4170     0.0630    -1.8870 ns         1 B0F      -0.521900
     12 C06        -15.6500     1.1550    -2.1380 c          1 B0F       0.613000
     13 O08        -15.7880     1.9410    -3.0620 o          1 B0F      -0.575000
     14 N07        -14.7070     1.2180    -1.1590 ns         1 B0F      -0.513900
     15 C03        -14.8320     0.1740    -0.1740 c5         1 B0F       0.097700
     16 C18         -3.0300     1.1310     1.5220 ca         1 B0F      -0.051300
     17 C17         -4.3780     0.8810     1.2800 ca         1 B0F      -0.151000
     18 C16         -4.8160    -0.4090     0.9870 ca         1 B0F      -0.014000
     19 C58         -2.5360    -1.2240     1.1830 ca         1 B0F      -0.051300
     20 N15         -6.1480    -0.7510     0.7280 ns         1 B0F      -0.149000
     21 C60         -3.8840    -1.4460     0.9460 ca         1 B0F      -0.151000
     22 C59         -1.5560    -2.3610     1.1670 c3         1 B0F      -0.046300
     23 C20         -2.1220     0.0790     1.4660 ca         1 B0F       0.058100
     24 O21         -0.8000     0.3190     1.7370 os         1 B0F      -0.327100
     25 C22         -0.0140     0.5720     0.6000 c3         1 B0F       0.075600
     26 C23          1.4490     0.5290     0.9990 c          1 B0F       0.605100
     27 O57          1.8240     0.0960     2.0720 o          1 B0F      -0.574100
     28 C34          5.8970     2.0290     0.1070 c          1 B0F       0.580100
     29 N24          2.2700     0.9970     0.0390 ns         1 B0F      -0.506900
     30 O35          6.6380     2.1360    -0.8610 o          1 B0F      -0.610100
     31 C33          4.3920     2.1960    -0.0770 c3         1 B0F       0.092300
     32 C27          3.4950    -1.5140    -0.7890 ca         1 B0F      -0.079300
     33 C26          4.1390    -0.1770    -1.0170 c3         1 B0F      -0.056100
     34 C30          2.2470    -3.9610    -0.2540 ca         1 B0F      -0.109000
     35 C25          3.7020     0.8250     0.0620 c3         1 B0F       0.090700
     36 O56          4.1220     2.7910    -1.3100 oh         1 B0F      -0.652000
     37 C28          2.3130    -1.8640    -1.4330 ca         1 B0F      -0.102500
     38 C32          4.0480    -2.4100     0.1240 ca         1 B0F      -0.102500
     39 C29          1.6900    -3.0770    -1.1680 ca         1 B0F      -0.111000
     40 C31          3.4320    -3.6240     0.3890 ca         1 B0F      -0.111000
     41 C38          8.1910     0.2440     0.6140 c          1 B0F       0.611100
     42 N36          6.3600     1.7000     1.3250 n          1 B0F      -0.386800
     43 O50          7.4340    -0.6840     0.3890 o          1 B0F      -0.601100
     44 C37          7.7800     1.4370     1.4750 c5         1 B0F       0.026700
     45 C51          8.0690     1.1840     2.9780 c5         1 B0F       0.103000
     46 C55          5.6110     1.7880     2.5650 c5         1 B0F       0.237000
     47 C52          9.4680     1.6440     3.3560 c3         1 B0F      -0.084100
     48 C53          7.8450    -0.2590     3.4200 c3         1 B0F      -0.084100
     49 S54          6.8390     2.2760     3.7930 ss         1 B0F      -0.422000
     50 N39          9.4640     0.2910     0.1960 ns         1 B0F      -0.480900
     51 O49         12.0960     0.4400    -0.2660 oh         1 B0F      -0.661000
     52 C40         10.0730    -0.7550    -0.5780 c5         1 B0F       0.160000
     53 C41          9.9900    -0.5990    -2.0780 ca         1 B0F      -0.108300
     54 C46          8.9700    -0.0730    -2.8500 ca         1 B0F      -0.070000
     55 C45          9.1220    -0.0610    -4.2340 ca         1 B0F      -0.112000
     56 C48         11.5880    -0.8730    -0.3360 c5         1 B0F       0.155300
     57 C42         11.1460    -1.1070    -2.6600 ca         1 B0F      -0.081300
     58 C43         11.2970    -1.0980    -4.0370 ca         1 B0F      -0.098000
     59 C44         10.2750    -0.5710    -4.8220 ca         1 B0F      -0.106000
     60 C47         12.0840    -1.6030    -1.5940 c5         1 B0F      -0.063100
     61 H1          -8.4050    -1.4580    -0.2430 hc         1 B0F       0.059200
     62 H2          -8.6980    -1.4490     1.4750 hc         1 B0F       0.059200
     63 H3          -9.9030     0.7530     1.2550 hc         1 B0F       0.057700
     64 H4          -9.6360     0.7160    -0.4740 hc         1 B0F       0.057700
     65 H5         -10.9100    -1.4390    -0.6150 hc         1 B0F       0.044700
     66 H6         -11.1810    -1.3910     1.1130 hc         1 B0F       0.044700
     67 H7         -12.3600     0.8200     0.8490 hc         1 B0F       0.055200
     68 H8         -12.1600     0.7010    -0.8900 hc         1 B0F       0.055200
     69 H9         -13.6650    -1.2890     0.8650 h1         1 B0F       0.068700
     70 H10        -15.8960    -2.5080    -2.0020 h1         1 B0F       0.077700
     71 H56        -15.5140    -2.7750    -0.2990 h1         1 B0F       0.077700
     72 H11        -16.7860    -0.8440    -0.0340 h1         1 B0F       0.071700
     73 H12        -17.0580    -0.2990    -2.5730 hn         1 B0F       0.341500
     74 H13        -14.2280     2.0810    -0.9670 hn         1 B0F       0.339500
     75 H14        -15.0930     0.5840     0.8060 h1         1 B0F       0.063700
     76 H15         -2.1470     2.5500     2.8780 hc         1 B0F       0.047867
     77 H16         -1.8050     2.8860     1.1920 hc         1 B0F       0.047867
     78 H17         -3.4030     3.2190     1.8420 hc         1 B0F       0.047867
     79 H19         -6.2910    -1.7170     0.4730 hn         1 B0F       0.148000
     80 H20         -4.2190    -2.4550     0.7300 ha         1 B0F       0.129000
     81 H21         -0.8530    -2.2880     0.3360 hc         1 B0F       0.047867
     82 H22         -0.9610    -2.3870     2.0810 hc         1 B0F       0.047867
     83 H23         -2.0710    -3.3150     1.0730 hc         1 B0F       0.047867
     84 H24         -0.1720    -0.1850    -0.1780 h1         1 B0F       0.044200
     85 H25         -0.2550     1.5430     0.1490 h1         1 B0F       0.044200
     86 H26          1.8620     1.3300    -0.8220 hn         1 B0F       0.318500
     87 H27          3.9860     2.8510     0.7010 h1         1 B0F       0.086700
     88 H28          5.2240    -0.2860    -0.9940 hc         1 B0F       0.067200
     89 H29          3.8710     0.2070    -2.0040 hc         1 B0F       0.067200
     90 H30          1.7640    -4.9070    -0.0460 ha         1 B0F       0.110000
     91 H31          3.9480     0.4120     1.0410 h1         1 B0F       0.091700
     92 H32          4.8760     2.6170    -1.8920 ho         1 B0F       0.473000
     93 H33          1.8750    -1.1850    -2.1560 ha         1 B0F       0.115500
     94 H34          4.9740    -2.1510     0.6260 ha         1 B0F       0.115500
     95 H35          0.7700    -3.3320    -1.6790 ha         1 B0F       0.109500
     96 H36          3.8780    -4.3100     1.0980 ha         1 B0F       0.109500
     97 H37          8.3420     2.3240     1.1660 h1         1 B0F       0.084700
     98 H38          4.8330     2.5470     2.5210 h2         1 B0F       0.088700
     99 H39          5.1550     0.8340     2.8360 h2         1 B0F       0.088700
    100 H40          9.6370     2.6850     3.0810 hc         1 B0F       0.052700
    101 H41          9.6300     1.5390     4.4280 hc         1 B0F       0.052700
    102 H42         10.2180     1.0310     2.8530 hc         1 B0F       0.052700
    103 H43          8.5910    -0.9220     2.9780 hc         1 B0F       0.052700
    104 H44          7.9490    -0.3270     4.5020 hc         1 B0F       0.052700
    105 H45          6.8610    -0.6410     3.1480 hc         1 B0F       0.052700
    106 H46          9.9980     1.1380     0.3160 hn         1 B0F       0.335500
    107 H47         13.0020     0.4030     0.0560 ho         1 B0F       0.447000
    108 H48          9.6090    -1.7030    -0.2910 h1         1 B0F       0.087700
    109 H49          8.0770     0.3380    -2.3940 ha         1 B0F       0.135000
    110 H50          8.3390     0.3530    -4.8570 ha         1 B0F       0.114000
    111 H51         11.8030    -1.4310     0.5810 h1         1 B0F       0.044700
    112 H52         12.1970    -1.4850    -4.4990 ha         1 B0F       0.112000
    113 H53         10.3820    -0.5510    -5.8990 ha         1 B0F       0.111000
    114 H54         13.1370    -1.4050    -1.8020 hc         1 B0F       0.059700
    115 H55         11.9800    -2.6840    -1.4630 hc         1 B0F       0.059700
    116 H18         -5.0750     1.7020     1.3230 ha         1 B0F       0.129000
    117 C19         -2.5720     2.5170     1.8740 c3         1 B0F      -0.046300
@<TRIPOS>BOND
     1     1     2 2   
     2     1     3 1   
     3     1    20 1   
     4     3     4 1   
     5     3    61 1   
     6     3    62 1   
     7     4     5 1   
     8     4    63 1   
     9     4    64 1   
    10     5     6 1   
    11     5    65 1   
    12     5    66 1   
    13     6     7 1   
    14     6    67 1   
    15     6    68 1   
    16     7     8 1   
    17     7    15 1   
    18     7    69 1   
    19     8     9 1   
    20     9    10 1   
    21     9    70 1   
    22     9    71 1   
    23    10    11 1   
    24    10    15 1   
    25    10    72 1   
    26    11    12 1   
    27    11    73 1   
    28    12    13 2   
    29    12    14 1   
    30    14    15 1   
    31    14    74 1   
    32    15    75 1   
    33    16    17 ar  
    34    16    23 ar  
    35    16   117 1   
    36    17    18 ar  
    37    17   116 1   
    38    18    20 1   
    39    18    21 ar  
    40    19    21 ar  
    41    19    22 1   
    42    19    23 ar  
    43    20    79 1   
    44    21    80 1   
    45    22    81 1   
    46    22    82 1   
    47    22    83 1   
    48    23    24 1   
    49    24    25 1   
    50    25    26 1   
    51    25    84 1   
    52    25    85 1   
    53    26    27 2   
    54    26    29 1   
    55    28    30 2   
    56    28    31 1   
    57    28    42 1   
    58    29    35 1   
    59    29    86 1   
    60    31    35 1   
    61    31    36 1   
    62    31    87 1   
    63    32    33 1   
    64    32    37 ar  
    65    32    38 ar  
    66    33    35 1   
    67    33    88 1   
    68    33    89 1   
    69    34    39 ar  
    70    34    40 ar  
    71    34    90 1   
    72    35    91 1   
    73    36    92 1   
    74    37    39 ar  
    75    37    93 1   
    76    38    40 ar  
    77    38    94 1   
    78    39    95 1   
    79    40    96 1   
    80    41    43 2   
    81    41    44 1   
    82    41    50 1   
    83    42    44 1   
    84    42    46 1   
    85    44    45 1   
    86    44    97 1   
    87    45    47 1   
    88    45    48 1   
    89    45    49 1   
    90    46    49 1   
    91    46    98 1   
    92    46    99 1   
    93    47   100 1   
    94    47   101 1   
    95    47   102 1   
    96    48   103 1   
    97    48   104 1   
    98    48   105 1   
    99    50    52 1   
   100    50   106 1   
   101    51    56 1   
   102    51   107 1   
   103    52    53 1   
   104    52    56 1   
   105    52   108 1   
   106    53    54 ar  
   107    53    57 ar  
   108    54    55 ar  
   109    54   109 1   
   110    55    59 ar  
   111    55   110 1   
   112    56    60 1   
   113    56   111 1   
   114    57    58 ar  
   115    57    60 1   
   116    58    59 ar  
   117    58   112 1   
   118    59   113 1   
   119    60   114 1   
   120    60   115 1   
   121    76   117 1   
   122    77   117 1   
   123    78   117 1   
@<TRIPOS>SUBSTRUCTURE
     1 B0F         1 TEMP              0 ****  ****    0 ROOT
