@<TRIPOS>MOLECULE
B0F
  117   123     1     0     0
SMALL
No Charge or Current Charge


@<TRIPOS>ATOM
      1 C14         -7.6570    -0.2060     2.6550 c          1 B0F       0.608100
      2 O61         -7.6070     0.7650     3.4010 o          1 B0F      -0.578100
      3 C13         -9.0000    -0.8310     2.2490 c3         1 B0F      -0.159400
      4 C12         -9.7490     0.0440     1.2160 c3         1 B0F      -0.064400
      5 C11        -11.1030    -0.5620     0.7840 c3         1 B0F      -0.078400
      6 C10        -11.8550     0.3110    -0.2490 c3         1 B0F      -0.058400
      7 C02        -13.2380    -0.2530    -0.6740 c5         1 B0F       0.072300
      8 S01        -13.0670    -1.8200    -1.6440 ss         1 B0F      -0.409000
      9 C09        -14.8800    -1.7160    -2.0070 c5         1 B0F       0.029600
     10 C04        -15.1930    -0.2120    -2.3160 c5         1 B0F       0.101700
     11 N05        -14.8140    -0.0320    -3.7200 ns         1 B0F      -0.521900
     12 C06        -13.7100     0.7320    -3.8770 c          1 B0F       0.613000
     13 O08        -13.1830     0.9950    -4.9410 o          1 B0F      -0.575000
     14 N07        -13.2950     1.1750    -2.6690 ns         1 B0F      -0.513900
     15 C03        -14.1300     0.6900    -1.5630 c5         1 B0F       0.097700
     16 C18         -3.2080     0.7000     2.9640 ca         1 B0F      -0.051300
     17 C17         -4.6030     0.5170     2.8910 ca         1 B0F      -0.151000
     18 C16         -5.1480    -0.6170     2.2520 ca         1 B0F      -0.014000
     19 C58         -2.8820    -1.4010     1.7480 ca         1 B0F      -0.051300
     20 N15         -6.5450    -0.8600     2.1380 ns         1 B0F      -0.149000
     21 C60         -4.2780    -1.5650     1.6840 ca         1 B0F      -0.151000
     22 C59         -1.9760    -2.4660     1.1340 c3         1 B0F      -0.046300
     23 C20         -2.3500    -0.2570     2.3830 ca         1 B0F       0.058100
     24 O21         -0.9880    -0.0740     2.4480 os         1 B0F      -0.327100
     25 C22         -0.2980     0.4800     1.3060 c3         1 B0F       0.075600
     26 C23          1.2390     0.4100     1.4540 c          1 B0F       0.605100
     27 O57          1.8100     0.0160     2.4640 o          1 B0F      -0.574100
     28 C34          5.5840     1.9780    -0.2460 c          1 B0F       0.580100
     29 N24          1.9360     0.8180     0.3330 ns         1 B0F      -0.506900
     30 O35          6.2190     2.1130    -1.2870 o          1 B0F      -0.610100
     31 C33          4.0220     2.0400    -0.2670 c3         1 B0F       0.092300
     32 C27          3.1010    -1.8130    -0.3510 ca         1 B0F      -0.079300
     33 C26          3.6900    -0.4900    -0.8310 c3         1 B0F      -0.056100
     34 C30          1.9960    -4.2340     0.5800 ca         1 B0F      -0.109000
     35 C25          3.3870     0.6790     0.1450 c3         1 B0F       0.090700
     36 O56          3.5200     2.4620    -1.5650 oh         1 B0F      -0.652000
     37 C28          1.8750    -2.2790    -0.8660 ca         1 B0F      -0.102500
     38 C32          3.7710    -2.5680     0.6310 ca         1 B0F      -0.102500
     39 C29          1.3240    -3.4850    -0.4020 ca         1 B0F      -0.111000
     40 C31          3.2200    -3.7750     1.0950 ca         1 B0F      -0.111000
     41 C38          8.1350     0.1880     0.1020 c          1 B0F       0.611100
     42 N36          6.2470     1.6980     0.9700 n          1 B0F      -0.386800
     43 O50          7.4360    -0.7740    -0.1940 o          1 B0F      -0.601100
     44 C37          7.7230     1.4120     0.9810 c5         1 B0F       0.026700
     45 C51          8.0880     1.1280     2.4850 c5         1 B0F       0.103000
     46 C55          5.6790     2.1240     2.2740 c5         1 B0F       0.237000
     47 C52          9.5870     1.3490     2.8040 c3         1 B0F      -0.084100
     48 C53          7.6580    -0.2650     3.0260 c3         1 B0F      -0.084100
     49 S54          7.1330     2.4290     3.3720 ss         1 B0F      -0.422000
     50 N39          9.4330     0.3530    -0.3340 ns         1 B0F      -0.480900
     51 O49         12.0470     0.7030    -0.4640 oh         1 B0F      -0.661000
     52 C40         10.0320    -0.6830    -1.1790 c5         1 B0F       0.160000
     53 C41          9.9860    -0.3980    -2.6590 ca         1 B0F      -0.108300
     54 C46          8.8610    -0.0210    -3.4130 ca         1 B0F      -0.070000
     55 C45          9.0100     0.1940    -4.7970 ca         1 B0F      -0.112000
     56 C48         11.6060    -0.5980    -0.8980 c5         1 B0F       0.155300
     57 C42         11.2190    -0.5600    -3.2580 ca         1 B0F      -0.081300
     58 C43         11.3850    -0.3550    -4.6370 ca         1 B0F      -0.098000
     59 C44         10.2700     0.0270    -5.4080 ca         1 B0F      -0.106000
     60 C47         12.2820    -0.9790    -2.2750 c5         1 B0F      -0.063100
     61 H1          -8.8330    -1.8220     1.8090 hc         1 B0F       0.059200
     62 H2          -9.6260    -0.9250     3.1440 hc         1 B0F       0.059200
     63 H3          -9.9190     1.0410     1.6420 hc         1 B0F       0.057700
     64 H4          -9.1150     0.1800     0.3300 hc         1 B0F       0.057700
     65 H5         -10.9280    -1.5590     0.3610 hc         1 B0F       0.044700
     66 H6         -11.7360    -0.6970     1.6690 hc         1 B0F       0.044700
     67 H7         -11.9960     1.3100     0.1810 hc         1 B0F       0.055200
     68 H8         -11.2140     0.4390    -1.1290 hc         1 B0F       0.055200
     69 H9         -13.7930    -0.4900     0.2440 h1         1 B0F       0.068700
     70 H10        -15.1560    -2.3860    -2.8320 h1         1 B0F       0.077700
     71 H56        -15.4320    -2.0420    -1.1150 h1         1 B0F       0.077700
     72 H11        -16.2350     0.0670    -2.1100 h1         1 B0F       0.071700
     73 H12        -15.2540    -0.4470    -4.5320 hn         1 B0F       0.341500
     74 H13        -12.4800     1.7710    -2.6080 hn         1 B0F       0.339500
     75 H14        -14.5890     1.5090    -0.9910 h1         1 B0F       0.063700
     76 H15         -1.8880     1.6530     4.4060 hc         1 B0F       0.047867
     77 H16         -2.1630     2.6050     2.9370 hc         1 B0F       0.047867
     78 H17         -3.4190     2.5050     4.1790 hc         1 B0F       0.047867
     79 H19         -6.7720    -1.6610     1.5630 hn         1 B0F       0.148000
     80 H20         -4.6910    -2.4420     1.1900 ha         1 B0F       0.129000
     81 H21         -1.6760    -2.1870     0.1170 hc         1 B0F       0.047867
     82 H22         -1.0650    -2.6130     1.7260 hc         1 B0F       0.047867
     83 H23         -2.4810    -3.4370     1.0740 hc         1 B0F       0.047867
     84 H24         -0.5620    -0.0670     0.3930 h1         1 B0F       0.044200
     85 H25         -0.5790     1.5300     1.1580 h1         1 B0F       0.044200
     86 H26          1.3900     1.1590    -0.4500 hn         1 B0F       0.318500
     87 H27          3.7310     2.7820     0.4870 h1         1 B0F       0.086700
     88 H28          4.7740    -0.5950    -0.9500 hc         1 B0F       0.067200
     89 H29          3.3000    -0.2450    -1.8260 hc         1 B0F       0.067200
     90 H30          1.5690    -5.1670     0.9400 ha         1 B0F       0.110000
     91 H31          3.8250     0.3940     1.1100 h1         1 B0F       0.091700
     92 H32          4.3110     2.5190    -2.1540 ho         1 B0F       0.473000
     93 H33          1.3450    -1.7030    -1.6220 ha         1 B0F       0.115500
     94 H34          4.7170    -2.2170     1.0380 ha         1 B0F       0.115500
     95 H35          0.3760    -3.8400    -0.8010 ha         1 B0F       0.109500
     96 H36          3.7410    -4.3530     1.8550 ha         1 B0F       0.109500
     97 H37          8.2610     2.2960     0.6150 h1         1 B0F       0.084700
     98 H38          5.1060     3.0500     2.1350 h2         1 B0F       0.088700
     99 H39          5.0700     1.2980     2.6620 h2         1 B0F       0.088700
    100 H40          9.9270     2.3330     2.4590 hc         1 B0F       0.052700
    101 H41          9.7730     1.2990     3.8840 hc         1 B0F       0.052700
    102 H42         10.2190     0.5900     2.3290 hc         1 B0F       0.052700
    103 H43          8.2680    -1.0690     2.5950 hc         1 B0F       0.052700
    104 H44          7.7750    -0.3170     4.1150 hc         1 B0F       0.052700
    105 H45          6.6110    -0.4910     2.7970 hc         1 B0F       0.052700
    106 H46          9.9530     1.1710    -0.0400 hn         1 B0F       0.335500
    107 H47         13.0240     0.6560    -0.3690 ho         1 B0F       0.447000
    108 H48          9.6550    -1.6940    -0.9690 h1         1 B0F       0.087700
    109 H49          7.8900     0.1040    -2.9370 ha         1 B0F       0.135000
    110 H50          8.1500     0.4880    -5.3950 ha         1 B0F       0.114000
    111 H51         11.8820    -1.3330    -0.1290 h1         1 B0F       0.044700
    112 H52         12.3590    -0.4880    -5.1020 ha         1 B0F       0.112000
    113 H53         10.3810     0.1920    -6.4780 ha         1 B0F       0.111000
    114 H54         13.2390    -0.4700    -2.4350 hc         1 B0F       0.059700
    115 H55         12.4720    -2.0570    -2.3370 hc         1 B0F       0.059700
    116 H18         -5.2460     1.2710     3.3310 ha         1 B0F       0.129000
    117 C19         -2.6410     1.9330     3.6590 c3         1 B0F      -0.046300
@<TRIPOS>BOND
     1     1     2 2   
     2     1     3 1   
     3     1    20 1   
     4     3     4 1   
     5     3    61 1   
     6     3    62 1   
     7     4     5 1   
     8     4    63 1   
     9     4    64 1   
    10     5     6 1   
    11     5    65 1   
    12     5    66 1   
    13     6     7 1   
    14     6    67 1   
    15     6    68 1   
    16     7     8 1   
    17     7    15 1   
    18     7    69 1   
    19     8     9 1   
    20     9    10 1   
    21     9    70 1   
    22     9    71 1   
    23    10    11 1   
    24    10    15 1   
    25    10    72 1   
    26    11    12 1   
    27    11    73 1   
    28    12    13 2   
    29    12    14 1   
    30    14    15 1   
    31    14    74 1   
    32    15    75 1   
    33    16    17 ar  
    34    16    23 ar  
    35    16   117 1   
    36    17    18 ar  
    37    17   116 1   
    38    18    20 1   
    39    18    21 ar  
    40    19    21 ar  
    41    19    22 1   
    42    19    23 ar  
    43    20    79 1   
    44    21    80 1   
    45    22    81 1   
    46    22    82 1   
    47    22    83 1   
    48    23    24 1   
    49    24    25 1   
    50    25    26 1   
    51    25    84 1   
    52    25    85 1   
    53    26    27 2   
    54    26    29 1   
    55    28    30 2   
    56    28    31 1   
    57    28    42 1   
    58    29    35 1   
    59    29    86 1   
    60    31    35 1   
    61    31    36 1   
    62    31    87 1   
    63    32    33 1   
    64    32    37 ar  
    65    32    38 ar  
    66    33    35 1   
    67    33    88 1   
    68    33    89 1   
    69    34    39 ar  
    70    34    40 ar  
    71    34    90 1   
    72    35    91 1   
    73    36    92 1   
    74    37    39 ar  
    75    37    93 1   
    76    38    40 ar  
    77    38    94 1   
    78    39    95 1   
    79    40    96 1   
    80    41    43 2   
    81    41    44 1   
    82    41    50 1   
    83    42    44 1   
    84    42    46 1   
    85    44    45 1   
    86    44    97 1   
    87    45    47 1   
    88    45    48 1   
    89    45    49 1   
    90    46    49 1   
    91    46    98 1   
    92    46    99 1   
    93    47   100 1   
    94    47   101 1   
    95    47   102 1   
    96    48   103 1   
    97    48   104 1   
    98    48   105 1   
    99    50    52 1   
   100    50   106 1   
   101    51    56 1   
   102    51   107 1   
   103    52    53 1   
   104    52    56 1   
   105    52   108 1   
   106    53    54 ar  
   107    53    57 ar  
   108    54    55 ar  
   109    54   109 1   
   110    55    59 ar  
   111    55   110 1   
   112    56    60 1   
   113    56   111 1   
   114    57    58 ar  
   115    57    60 1   
   116    58    59 ar  
   117    58   112 1   
   118    59   113 1   
   119    60   114 1   
   120    60   115 1   
   121    76   117 1   
   122    77   117 1   
   123    78   117 1   
@<TRIPOS>SUBSTRUCTURE
     1 B0F         1 TEMP              0 ****  ****    0 ROOT
