@<TRIPOS>MOLECULE
B0G
   34    35     1     0     0
SMALL
abcg2


@<TRIPOS>ATOM
      1 N1           1.6820     0.8090     0.5460 n          1 B0G      -0.400800
      2 C4          -2.7780     0.3240    -0.3350 ca         1 B0G      -0.101300
      3 C5          -3.3710     0.2750     0.9240 ca         1 B0G      -0.085500
      4 C6          -4.4080    -0.6100     1.1820 ca         1 B0G      -0.115500
      5 C7          -1.6460     1.2690    -0.6020 c3         1 B0G       0.229900
      6 C8           0.6550     1.4030    -0.0960 c          1 B0G       0.644100
      7 C10          2.4860    -1.4930     0.2920 c6         1 B0G      -0.121400
      8 C13          3.0230     1.3540     0.4320 c6         1 B0G       0.107000
      9 C1          -4.8650    -1.4570     0.1780 ca         1 B0G      -0.099000
     10 C2          -4.2800    -1.4140    -1.0790 ca         1 B0G      -0.115500
     11 C3          -3.2400    -0.5290    -1.3320 ca         1 B0G      -0.085500
     12 O1          -0.4790     0.7000    -0.0000 os         1 B0G      -0.456100
     13 O2           0.7240     2.4670    -0.6830 o          1 B0G      -0.548000
     14 C9           1.6450    -0.5270     1.1190 c6         1 B0G       0.107000
     15 C11          3.9070    -0.9730     0.1440 c6         1 B0G       0.173300
     16 C12          3.8970     0.4430    -0.4230 c6         1 B0G      -0.121400
     17 O3           4.6250    -1.8740    -0.6700 oh         1 B0G      -0.656000
     18 H1          -3.0250     0.9390     1.7080 ha         1 B0G       0.115000
     19 H2          -4.8630    -0.6370     2.1630 ha         1 B0G       0.114500
     20 H3          -1.4960     1.3990    -1.6750 h1         1 B0G       0.056700
     21 H4          -1.8520     2.2500    -0.1670 h1         1 B0G       0.056700
     22 H5           2.4910    -2.4710     0.7800 hc         1 B0G       0.060450
     23 H6           2.0310    -1.6200    -0.6950 hc         1 B0G       0.060450
     24 H7           2.9800     2.3570     0.0170 h1         1 B0G       0.062200
     25 H8           3.4460     1.4380     1.4380 h1         1 B0G       0.062200
     26 H9          -5.6770    -2.1440     0.3760 ha         1 B0G       0.113000
     27 H10         -4.6330    -2.0700    -1.8650 ha         1 B0G       0.114500
     28 H11         -2.7870    -0.4990    -2.3160 ha         1 B0G       0.115000
     29 H12          2.0440    -0.4670     2.1370 h1         1 B0G       0.062200
     30 H13          0.6230    -0.8820     1.2040 h1         1 B0G       0.062200
     31 H14          4.3540    -0.9250     1.1500 h1         1 B0G       0.024700
     32 H15          3.5200     0.4260    -1.4500 hc         1 B0G       0.060450
     33 H16          4.9140     0.8460    -0.4540 hc         1 B0G       0.060450
     34 H17          5.5360    -1.5670    -0.7280 ho         1 B0G       0.443000
@<TRIPOS>BOND
     1     1     6 1   
     2     1     8 1   
     3     1    14 1   
     4     2     3 ar  
     5     2     5 1   
     6     2    11 ar  
     7     3     4 ar  
     8     3    18 1   
     9     4     9 ar  
    10     4    19 1   
    11     5    12 1   
    12     5    20 1   
    13     5    21 1   
    14     6    12 1   
    15     6    13 2   
    16     7    14 1   
    17     7    15 1   
    18     7    22 1   
    19     7    23 1   
    20     8    16 1   
    21     8    24 1   
    22     8    25 1   
    23     9    10 ar  
    24     9    26 1   
    25    10    11 ar  
    26    10    27 1   
    27    11    28 1   
    28    14    29 1   
    29    14    30 1   
    30    15    16 1   
    31    15    17 1   
    32    15    31 1   
    33    16    32 1   
    34    16    33 1   
    35    17    34 1   
@<TRIPOS>SUBSTRUCTURE
     1 B0G         1 TEMP              0 ****  ****    0 ROOT
