@<TRIPOS>MOLECULE
B0G
   34    35     1     0     0
SMALL
No Charge or Current Charge


@<TRIPOS>ATOM
      1 N1           1.7060     0.6110    -0.2220 n          1 B0G      -0.400800
      2 C4          -2.9800     0.4210    -0.1260 ca         1 B0G      -0.101300
      3 C5          -3.4900     0.2190     1.1720 ca         1 B0G      -0.085500
      4 C6          -4.5380    -0.6930     1.3890 ca         1 B0G      -0.115500
      5 C7          -1.8440     1.4080    -0.3610 c3         1 B0G       0.229900
      6 C8           0.5570     1.4120    -0.3870 c          1 B0G       0.644100
      7 C10          2.8550    -1.6610     0.1280 c6         1 B0G      -0.121400
      8 C13          3.0400     1.2770    -0.1300 c6         1 B0G       0.107000
      9 C1          -5.0820    -1.4090     0.3090 ca         1 B0G      -0.099000
     10 C2          -4.5760    -1.2140    -0.9870 ca         1 B0G      -0.115500
     11 C3          -3.5280    -0.3020    -1.2040 ca         1 B0G      -0.085500
     12 O1          -0.6000     0.7040    -0.2180 os         1 B0G      -0.456100
     13 O2           0.5990     2.6050    -0.6530 o          1 B0G      -0.548000
     14 C9           1.6030    -0.7780     0.3310 c6         1 B0G       0.107000
     15 C11          4.1400    -0.9220     0.5260 c6         1 B0G       0.173300
     16 C12          4.2570     0.3460    -0.3320 c6         1 B0G      -0.121400
     17 O3           5.2720    -1.7670     0.3120 oh         1 B0G      -0.656000
     18 H1          -3.0720     0.7680     2.0140 ha         1 B0G       0.115000
     19 H2          -4.9270    -0.8440     2.3930 ha         1 B0G       0.114500
     20 H3          -1.9340     1.8400    -1.3660 h1         1 B0G       0.056700
     21 H4          -1.9140     2.2280     0.3670 h1         1 B0G       0.056700
     22 H5           2.7510    -2.5830     0.7160 hc         1 B0G       0.060450
     23 H6           2.9140    -1.9670    -0.9250 hc         1 B0G       0.060450
     24 H7           3.0980     2.0880    -0.8700 h1         1 B0G       0.062200
     25 H8           3.1160     1.7460     0.8620 h1         1 B0G       0.062200
     26 H9          -5.8930    -2.1140     0.4770 ha         1 B0G       0.113000
     27 H10         -4.9950    -1.7690    -1.8230 ha         1 B0G       0.114500
     28 H11         -3.1400    -0.1590    -2.2110 ha         1 B0G       0.115000
     29 H12          1.3950    -0.7000     1.4080 h1         1 B0G       0.062200
     30 H13          0.7490    -1.3000    -0.1230 h1         1 B0G       0.062200
     31 H14          4.0790    -0.6380     1.5880 h1         1 B0G       0.024700
     32 H15          4.3310     0.0730    -1.3930 hc         1 B0G       0.060450
     33 H16          5.1780     0.8930    -0.0850 hc         1 B0G       0.060450
     34 H17          6.0560    -1.2770     0.6450 ho         1 B0G       0.443000
@<TRIPOS>BOND
     1     1     6 1   
     2     1     8 1   
     3     1    14 1   
     4     2     3 ar  
     5     2     5 1   
     6     2    11 ar  
     7     3     4 ar  
     8     3    18 1   
     9     4     9 ar  
    10     4    19 1   
    11     5    12 1   
    12     5    20 1   
    13     5    21 1   
    14     6    12 1   
    15     6    13 2   
    16     7    14 1   
    17     7    15 1   
    18     7    22 1   
    19     7    23 1   
    20     8    16 1   
    21     8    24 1   
    22     8    25 1   
    23     9    10 ar  
    24     9    26 1   
    25    10    11 ar  
    26    10    27 1   
    27    11    28 1   
    28    14    29 1   
    29    14    30 1   
    30    15    16 1   
    31    15    17 1   
    32    15    31 1   
    33    16    32 1   
    34    16    33 1   
    35    17    34 1   
@<TRIPOS>SUBSTRUCTURE
     1 B0G         1 TEMP              0 ****  ****    0 ROOT
