@<TRIPOS>MOLECULE
B0H
   48    50     1     0     0
SMALL
No Charge or Current Charge


@<TRIPOS>ATOM
      1 CAA          5.9480     2.2400    -2.2750 c3         1 B0H      -0.127400
      2 CAB          6.2760    -0.9430     1.5380 c3         1 B0H      -0.131400
      3 CAC         -4.2250     2.7730     2.2610 c3         1 B0H      -0.086600
      4 CAD         -7.5390     0.5910    -0.9880 c3         1 B0H      -0.086600
      5 CAF         -1.3350    -1.8910     0.6810 cc         1 B0H      -0.283000
      6 CAG         -5.9130     1.6880     0.6640 c6         1 B0H      -0.070400
      7 CAI         -3.4430     1.0880     0.4910 c6         1 B0H       0.169300
      8 CAJ         -5.0330     0.0410    -1.0690 c6         1 B0H       0.169300
      9 CAP          3.2190    -0.7540     0.5250 c          1 B0H       0.553600
     10 CAQ          5.6210     1.2510    -1.2020 cc         1 B0H       0.486300
     11 CAR         -1.3860    -1.0030    -0.3690 cd         1 B0H       0.307300
     12 CAS          5.6880    -0.1220     0.4240 cd         1 B0H       0.354300
     13 CAT          0.7890    -0.9060     0.0760 cc         1 B0H       0.531300
     14 CAU          4.3920    -0.0330    -0.0160 cc         1 B0H       0.010500
     15 CAV         -4.5910     1.5010     1.4510 c6         1 B0H      -0.063700
     16 CAW         -6.2370     0.4170    -0.1630 c6         1 B0H      -0.063700
     17 NAK          6.4750     0.7100    -0.3470 nd         1 B0H      -0.699000
     18 NAL         -0.1600    -0.4420    -0.7150 nd         1 B0H      -0.711000
     19 NAM          2.0580    -0.4430    -0.1400 ns         1 B0H      -0.458400
     20 NAX         -3.7830    -0.1420    -0.2810 n3         1 B0H      -0.722600
     21 OAE          3.2620    -1.5410     1.4580 o          1 B0H      -0.568100
     22 OAN          4.3290     0.8440    -1.0590 os         1 B0H      -0.263000
     23 SAO          0.2820    -2.0580     1.2950 ss         1 B0H       0.049600
     24 H1           5.6710     1.8450    -3.2580 hc         1 B0H       0.071367
     25 H2           5.4020     3.1760    -2.1140 hc         1 B0H       0.071367
     26 H3           7.0200     2.4670    -2.2870 hc         1 B0H       0.071367
     27 H4           7.3570    -0.7810     1.6270 hc         1 B0H       0.065033
     28 H5           5.8180    -0.6820     2.4990 hc         1 B0H       0.065033
     29 H6           6.1120    -2.0120     1.3630 hc         1 B0H       0.065033
     30 H7          -5.0240     3.0380     2.9640 hc         1 B0H       0.033700
     31 H8          -3.3090     2.6200     2.8440 hc         1 B0H       0.033700
     32 H9          -4.0610     3.6330     1.6010 hc         1 B0H       0.033700
     33 H11         -8.3920     0.8210    -0.3390 hc         1 B0H       0.033700
     34 H12         -7.4440     1.4060    -1.7160 hc         1 B0H       0.033700
     35 H13         -2.1470    -2.4440     1.1310 h4         1 B0H       0.172000
     36 H14         -6.7360     1.9030     1.3590 hc         1 B0H       0.039200
     37 H15         -5.8290     2.5560    -0.0050 hc         1 B0H       0.039200
     38 H16         -2.3920     0.1450    -1.8700 h1         1 B0H       0.049700
     39 H17         -2.9660    -1.5100    -1.6910 h1         1 B0H       0.049700
     40 H18         -3.2300     1.9190    -0.1970 h1         1 B0H       0.032200
     41 H19         -2.5340     0.9240     1.0890 h1         1 B0H       0.032200
     42 H20         -5.2760    -0.8870    -1.6080 h1         1 B0H       0.032200
     43 H21         -4.8920     0.8270    -1.8260 h1         1 B0H       0.032200
     44 H22         -4.7310     0.6960     2.1860 hc         1 B0H       0.057700
     45 H23         -6.4190    -0.4160     0.5300 hc         1 B0H       0.057700
     46 H24          2.1620     0.2220    -0.8920 hn         1 B0H       0.353500
     47 CAH         -2.6510    -0.6220    -1.1270 c3         1 B0H       0.141500
     48 H10         -7.7810    -0.3240    -1.5410 hc         1 B0H       0.033700
@<TRIPOS>BOND
     1     1    10 1   
     2     1    24 1   
     3     1    25 1   
     4     1    26 1   
     5     2    12 1   
     6     2    27 1   
     7     2    28 1   
     8     2    29 1   
     9     3    15 1   
    10     3    30 1   
    11     3    31 1   
    12     3    32 1   
    13     4    16 1   
    14     4    33 1   
    15     4    34 1   
    16     4    48 1   
    17     5    11 2   
    18     5    23 1   
    19     5    35 1   
    20     6    15 1   
    21     6    16 1   
    22     6    36 1   
    23     6    37 1   
    24     7    15 1   
    25     7    20 1   
    26     7    40 1   
    27     7    41 1   
    28     8    16 1   
    29     8    20 1   
    30     8    42 1   
    31     8    43 1   
    32     9    14 1   
    33     9    19 1   
    34     9    21 2   
    35    10    17 2   
    36    10    22 1   
    37    11    18 1   
    38    11    47 1   
    39    12    14 2   
    40    12    17 1   
    41    13    18 2   
    42    13    19 1   
    43    13    23 1   
    44    14    22 1   
    45    15    44 1   
    46    16    45 1   
    47    19    46 1   
    48    20    47 1   
    49    38    47 1   
    50    39    47 1   
@<TRIPOS>SUBSTRUCTURE
     1 B0H         1 TEMP              0 ****  ****    0 ROOT
