@<TRIPOS>MOLECULE
B0H
   48    50     1     0     0
SMALL
abcg2


@<TRIPOS>ATOM
      1 CAA          6.4640     1.6270    -2.5090 c3         1 B0H      -0.127400
      2 CAB          6.2820    -1.1920     1.5380 c3         1 B0H      -0.131400
      3 CAC         -4.9210     2.4500     2.5820 c3         1 B0H      -0.086600
      4 CAD         -7.4230     0.0810    -1.1030 c3         1 B0H      -0.086600
      5 CAF         -1.2780    -0.9170     0.7990 cc         1 B0H      -0.283000
      6 CAG         -6.2170     1.2120     0.8040 c6         1 B0H      -0.070400
      7 CAI         -3.7370     1.3540     0.6620 c6         1 B0H       0.169300
      8 CAJ         -4.9220     0.2090    -1.0790 c6         1 B0H       0.169300
      9 CAP          3.2360    -0.4930     0.3900 c          1 B0H       0.553600
     10 CAQ          6.0030     0.8110    -1.3680 cc         1 B0H       0.486300
     11 CAR         -1.3030    -0.1680    -0.3300 cd         1 B0H       0.307300
     12 CAS          5.8180    -0.4010     0.3740 cd         1 B0H       0.354300
     13 CAT          0.8730    -0.2780    -0.0660 cc         1 B0H       0.531300
     14 CAU          4.5640    -0.1270    -0.0770 cc         1 B0H       0.010500
     15 CAV         -4.9250     1.2770     1.6110 c6         1 B0H      -0.063700
     16 CAW         -6.1790     0.0880    -0.2250 c6         1 B0H      -0.063700
     17 NAK          6.7140     0.2110    -0.4700 nd         1 B0H      -0.699000
     18 NAL         -0.0730     0.1910    -0.8130 nd         1 B0H      -0.711000
     19 NAM          2.1940    -0.0370    -0.3590 ns         1 B0H      -0.458400
     20 NAX         -3.7170     0.2380    -0.2680 n3         1 B0H      -0.722600
     21 OAE          3.0580    -1.1670     1.3920 o          1 B0H      -0.568100
     22 OAN          4.6920     0.6470    -1.1930 os         1 B0H      -0.263000
     23 SAO          0.3470    -1.1990     1.2990 ss         1 B0H       0.049600
     24 H1           6.0520     1.2560    -3.4470 hc         1 B0H       0.071367
     25 H2           6.1500     2.6650    -2.3950 hc         1 B0H       0.071367
     26 H3           7.5490     1.5960    -2.5640 hc         1 B0H       0.071367
     27 H4           6.9580    -1.9820     1.2090 hc         1 B0H       0.065033
     28 H5           6.8390    -0.5560     2.2270 hc         1 B0H       0.065033
     29 H6           5.4560    -1.6450     2.0770 hc         1 B0H       0.065033
     30 H7          -5.7700     2.3950     3.2640 hc         1 B0H       0.033700
     31 H8          -4.0110     2.4650     3.1840 hc         1 B0H       0.033700
     32 H9          -4.9840     3.4020     2.0510 hc         1 B0H       0.033700
     33 H11         -8.3280    -0.0230    -0.5030 hc         1 B0H       0.033700
     34 H12         -7.5070     1.0120    -1.6680 hc         1 B0H       0.033700
     35 H13         -2.1150    -1.3060     1.3570 h4         1 B0H       0.172000
     36 H14         -7.0760     1.0870     1.4700 hc         1 B0H       0.039200
     37 H15         -6.3610     2.1690     0.2850 hc         1 B0H       0.039200
     38 H16         -2.3390     1.2350    -1.5490 h1         1 B0H       0.049700
     39 H17         -2.6660    -0.4480    -1.9180 h1         1 B0H       0.049700
     40 H18         -3.7710     2.3190     0.1200 h1         1 B0H       0.032200
     41 H19         -2.8090     1.3520     1.2390 h1         1 B0H       0.032200
     42 H20         -4.8610    -0.6440    -1.7620 h1         1 B0H       0.032200
     43 H21         -5.0060     1.1140    -1.7100 h1         1 B0H       0.032200
     44 H22         -4.8300     0.3490     2.1870 hc         1 B0H       0.057700
     45 H23         -6.1240    -0.8670     0.3120 hc         1 B0H       0.057700
     46 H24          2.3550     0.5180    -1.1880 hn         1 B0H       0.353500
     47 CAH         -2.5260     0.2510    -1.0870 c3         1 B0H       0.141500
     48 H10         -7.4030    -0.7430    -1.8190 hc         1 B0H       0.033700
@<TRIPOS>BOND
     1     1    10 1   
     2     1    24 1   
     3     1    25 1   
     4     1    26 1   
     5     2    12 1   
     6     2    27 1   
     7     2    28 1   
     8     2    29 1   
     9     3    15 1   
    10     3    30 1   
    11     3    31 1   
    12     3    32 1   
    13     4    16 1   
    14     4    33 1   
    15     4    34 1   
    16     4    48 1   
    17     5    11 2   
    18     5    23 1   
    19     5    35 1   
    20     6    15 1   
    21     6    16 1   
    22     6    36 1   
    23     6    37 1   
    24     7    15 1   
    25     7    20 1   
    26     7    40 1   
    27     7    41 1   
    28     8    16 1   
    29     8    20 1   
    30     8    42 1   
    31     8    43 1   
    32     9    14 1   
    33     9    19 1   
    34     9    21 2   
    35    10    17 2   
    36    10    22 1   
    37    11    18 1   
    38    11    47 1   
    39    12    14 2   
    40    12    17 1   
    41    13    18 2   
    42    13    19 1   
    43    13    23 1   
    44    14    22 1   
    45    15    44 1   
    46    16    45 1   
    47    19    46 1   
    48    20    47 1   
    49    38    47 1   
    50    39    47 1   
@<TRIPOS>SUBSTRUCTURE
     1 B0H         1 TEMP              0 ****  ****    0 ROOT
