@<TRIPOS>MOLECULE
B0I
   28    29     1     0     0
SMALL
bcc


@<TRIPOS>ATOM
      1 CB1          4.0960     1.3770    -0.6240 c3         1 B0I      -0.046800
      2 CG1          3.0650     0.3700    -0.2030 ca         1 B0I      -0.076300
      3 CD1          1.7140     0.7100    -0.1930 ca         1 B0I      -0.119000
      4 CD2          3.4280    -0.9160     0.1860 ca         1 B0I      -0.126000
      5 CE1          0.7300    -0.1980     0.1950 cp         1 B0I      -0.031000
      6 CE2          2.4610    -1.8350     0.5730 ca         1 B0I      -0.127000
      7 CZ1          1.1210    -1.4830     0.5790 ca         1 B0I      -0.121000
      8 CG2         -3.0330    -0.3760    -0.1910 ca         1 B0I      -0.076300
      9 CD3         -1.6810    -0.7150    -0.1880 ca         1 B0I      -0.119000
     10 CD4         -3.3940     0.9090     0.2040 ca         1 B0I      -0.126000
     11 CE3         -0.6960     0.1920     0.1990 cp         1 B0I      -0.031000
     12 CE4         -2.4250     1.8260     0.5910 ca         1 B0I      -0.127000
     13 CZ2         -1.0860     1.4750     0.5900 ca         1 B0I      -0.121000
     14 HB11         4.1700     2.1910     0.0990 hc         1 B0I       0.041867
     15 HB12         5.0830     0.9250    -0.7140 hc         1 B0I       0.041867
     16 H1           3.8440     1.8260    -1.5860 hc         1 B0I       0.041867
     17 HD1          1.4230     1.7020    -0.5180 ha         1 B0I       0.130000
     18 HD2          4.4730    -1.2030     0.1870 ha         1 B0I       0.129000
     19 HE2          2.7560    -2.8300     0.8800 ha         1 B0I       0.130000
     20 HZ1          0.3790    -2.2040     0.8990 ha         1 B0I       0.132000
     21 HB22        -4.1600    -2.1780     0.1330 hc         1 B0I       0.041867
     22 H2          -5.0460    -0.9230    -0.7250 hc         1 B0I       0.041867
     23 HB21        -3.8010    -1.8560    -1.5540 hc         1 B0I       0.041867
     24 HD3         -1.3910    -1.7060    -0.5190 ha         1 B0I       0.130000
     25 HD4         -4.4390     1.1960     0.2100 ha         1 B0I       0.129000
     26 HE4         -2.7190     2.8210     0.9020 ha         1 B0I       0.130000
     27 HZ2         -0.3420     2.1940     0.9100 ha         1 B0I       0.132000
     28 CB2         -4.0660    -1.3820    -0.6080 c3         1 B0I      -0.046800
@<TRIPOS>BOND
     1     1     2 1   
     2     1    14 1   
     3     1    15 1   
     4     1    16 1   
     5     2     3 ar  
     6     2     4 ar  
     7     3     5 ar  
     8     3    17 1   
     9     4     6 ar  
    10     4    18 1   
    11     5     7 ar  
    12     5    11 1   
    13     6     7 ar  
    14     6    19 1   
    15     7    20 1   
    16     8     9 ar  
    17     8    10 ar  
    18     8    28 1   
    19     9    11 ar  
    20     9    24 1   
    21    10    12 ar  
    22    10    25 1   
    23    11    13 ar  
    24    12    13 ar  
    25    12    26 1   
    26    13    27 1   
    27    21    28 1   
    28    22    28 1   
    29    23    28 1   
@<TRIPOS>SUBSTRUCTURE
     1 B0I         1 TEMP              0 ****  ****    0 ROOT
