@<TRIPOS>MOLECULE
B0I
   28    29     1     0     0
SMALL
No Charge or Current Charge


@<TRIPOS>ATOM
      1 CB1          4.1630     1.4030    -0.5930 c3         1 B0I      -0.046800
      2 CG1          3.1090     0.3810    -0.1930 ca         1 B0I      -0.076300
      3 CD1          1.7460     0.7360    -0.1860 ca         1 B0I      -0.101000
      4 CD2          3.4870    -0.9220     0.1780 ca         1 B0I      -0.108000
      5 CE1          0.7410    -0.1960     0.1820 cp         1 B0I      -0.031000
      6 CE2          2.5110    -1.8610     0.5460 ca         1 B0I      -0.109000
      7 CZ1          1.1530    -1.5020     0.5470 ca         1 B0I      -0.103000
      8 CG2         -3.0760    -0.3880    -0.1800 ca         1 B0I      -0.076300
      9 CD3         -1.7140    -0.7420    -0.1790 ca         1 B0I      -0.101000
     10 CD4         -3.4530     0.9150     0.1940 ca         1 B0I      -0.108000
     11 CE3         -0.7070     0.1890     0.1850 cp         1 B0I      -0.031000
     12 CE4         -2.4760     1.8540     0.5590 ca         1 B0I      -0.109000
     13 CZ2         -1.1170     1.4950     0.5530 ca         1 B0I      -0.103000
     14 HB11         4.4600     2.0140     0.2670 hc         1 B0I       0.041867
     15 HB12         5.0640     0.9170    -0.9870 hc         1 B0I       0.041867
     16 H1           3.7880     2.0790    -1.3710 hc         1 B0I       0.041867
     17 HD1          1.4620     1.7420    -0.4830 ha         1 B0I       0.112000
     18 HD2          4.5370    -1.2070     0.1810 ha         1 B0I       0.111000
     19 HE2          2.8070    -2.8670     0.8340 ha         1 B0I       0.112000
     20 HZ1          0.4150    -2.2410     0.8490 ha         1 B0I       0.114000
     21 HB22        -4.4270    -2.0190     0.2850 hc         1 B0I       0.041867
     22 H2          -5.0340    -0.9220    -0.9670 hc         1 B0I       0.041867
     23 HB21        -3.7600    -2.0850    -1.3550 hc         1 B0I       0.041867
     24 HD3         -1.4310    -1.7480    -0.4790 ha         1 B0I       0.112000
     25 HD4         -4.5030     1.2000     0.2020 ha         1 B0I       0.111000
     26 HE4         -2.7700     2.8600     0.8490 ha         1 B0I       0.112000
     27 HZ2         -0.3780     2.2340     0.8530 ha         1 B0I       0.114000
     28 CB2         -4.1320    -1.4080    -0.5760 c3         1 B0I      -0.046800
@<TRIPOS>BOND
     1     1     2 1   
     2     1    14 1   
     3     1    15 1   
     4     1    16 1   
     5     2     3 ar  
     6     2     4 ar  
     7     3     5 ar  
     8     3    17 1   
     9     4     6 ar  
    10     4    18 1   
    11     5     7 ar  
    12     5    11 1   
    13     6     7 ar  
    14     6    19 1   
    15     7    20 1   
    16     8     9 ar  
    17     8    10 ar  
    18     8    28 1   
    19     9    11 ar  
    20     9    24 1   
    21    10    12 ar  
    22    10    25 1   
    23    11    13 ar  
    24    12    13 ar  
    25    12    26 1   
    26    13    27 1   
    27    21    28 1   
    28    22    28 1   
    29    23    28 1   
@<TRIPOS>SUBSTRUCTURE
     1 B0I         1 TEMP              0 ****  ****    0 ROOT
