@<TRIPOS>MOLECULE
B0J
   38    39     1     0     0
SMALL
bcc


@<TRIPOS>ATOM
      1 N1          -0.1500     0.1050     0.0550 n7         1 B0J      -0.812200
      2 C4          -1.5340    -0.1510    -0.3100 c6         1 B0J       0.177500
      3 C5          -2.0490    -1.5450     0.0500 c6         1 B0J      -0.150400
      4 C6          -3.5320    -1.6610    -0.2560 c6         1 B0J       0.143400
      5 C7           0.8230    -0.7090    -0.6490 c3         1 B0J       0.217100
      6 C8           2.2320    -0.3100    -0.2980 ca         1 B0J      -0.128300
      7 C10          3.9060     1.4030     0.0770 ca         1 B0J      -0.197000
      8 C13          3.2090    -1.2690    -0.0610 ca         1 B0J      -0.077000
      9 C2          -3.9210     0.6780     0.0860 c6         1 B0J       0.161800
     10 C3          -2.4260     0.8870     0.3630 c6         1 B0J      -0.097400
     11 O1          -4.2910    -0.6640     0.3920 os         1 B0J      -0.411600
     12 C9           2.6060     1.0310    -0.2190 ca         1 B0J      -0.077000
     13 C11          4.8760     0.4270     0.3050 ca         1 B0J       0.140100
     14 C12          4.5200    -0.9150     0.2340 ca         1 B0J      -0.197000
     15 O2           6.1290     0.8370     0.5940 oh         1 B0J      -0.495100
     16 C14         -4.2760     1.0300    -1.3610 c3         1 B0J      -0.098600
     17 H1          -0.0380    -0.0320     1.0540 hn         1 B0J       0.357800
     18 H3          -1.5980    -0.0290    -1.3980 h1         1 B0J       0.058700
     19 H4          -1.5150    -2.3240    -0.5010 hc         1 B0J       0.048200
     20 H5          -1.8730    -1.7270     1.1160 hc         1 B0J       0.048200
     21 H6          -3.6850    -1.6330    -1.3440 h1         1 B0J       0.042700
     22 H7          -3.9230    -2.6190     0.0920 h1         1 B0J       0.042700
     23 H8           0.7100    -1.7890    -0.4760 h1         1 B0J       0.034200
     24 H9           0.6580    -0.5620    -1.7230 h1         1 B0J       0.034200
     25 H10          4.1760     2.4500     0.1350 ha         1 B0J       0.138000
     26 H11          2.9500    -2.3210    -0.1030 ha         1 B0J       0.137000
     27 H12         -4.5350     1.3130     2.0690 hc         1 B0J       0.041700
     28 H13         -4.5140     2.6030     0.8670 hc         1 B0J       0.041700
     29 H14         -5.8150     1.4130     0.8500 hc         1 B0J       0.041700
     30 H15         -2.2620     0.8350     1.4470 hc         1 B0J       0.055200
     31 H16         -2.1320     1.8920     0.0480 hc         1 B0J       0.055200
     32 H17          1.8610     1.8000    -0.3830 ha         1 B0J       0.137000
     33 H18          5.2590    -1.6890     0.4140 ha         1 B0J       0.138000
     34 H19          6.7070     0.0770     0.7260 ho         1 B0J       0.424000
     35 H20         -5.3390     0.8650    -1.5440 hc         1 B0J       0.041700
     36 H21         -4.0630     2.0830    -1.5520 hc         1 B0J       0.041700
     37 H22         -3.7190     0.4520    -2.0990 hc         1 B0J       0.041700
     38 C1          -4.7460     1.5490     1.0240 c3         1 B0J      -0.098600
@<TRIPOS>BOND
     1     1     2 1   
     2     1     5 1   
     3     1    17 1   
     4     2     3 1   
     5     2    10 1   
     6     2    18 1   
     7     3     4 1   
     8     3    19 1   
     9     3    20 1   
    10     4    11 1   
    11     4    21 1   
    12     4    22 1   
    13     5     6 1   
    14     5    23 1   
    15     5    24 1   
    16     6     8 ar  
    17     6    12 ar  
    18     7    12 ar  
    19     7    13 ar  
    20     7    25 1   
    21     8    14 ar  
    22     8    26 1   
    23     9    10 1   
    24     9    11 1   
    25     9    16 1   
    26     9    38 1   
    27    10    30 1   
    28    10    31 1   
    29    12    32 1   
    30    13    14 ar  
    31    13    15 1   
    32    14    33 1   
    33    15    34 1   
    34    16    35 1   
    35    16    36 1   
    36    16    37 1   
    37    27    38 1   
    38    28    38 1   
    39    29    38 1   
@<TRIPOS>SUBSTRUCTURE
     1 B0J         1 TEMP              0 ****  ****    0 ROOT
