@<TRIPOS>MOLECULE
B0J
   38    39     1     0     0
SMALL
No Charge or Current Charge


@<TRIPOS>ATOM
      1 N1          -0.1150     0.0810    -0.0650 n7         1 B0J      -0.867400
      2 C4          -1.5420    -0.1040    -0.3930 c6         1 B0J       0.177500
      3 C5          -1.9980    -1.5630    -0.1400 c6         1 B0J      -0.150400
      4 C6          -3.5180    -1.7080    -0.3790 c6         1 B0J       0.166600
      5 C7           0.8830    -0.5440    -0.9500 c3         1 B0J       0.217100
      6 C8           2.2870    -0.2110    -0.4710 ca         1 B0J      -0.128300
      7 C10          4.1890     1.3170    -0.3930 ca         1 B0J      -0.179000
      8 C13          3.0000    -1.1220     0.3330 ca         1 B0J      -0.059000
      9 C2          -3.9290     0.6390     0.2180 c6         1 B0J       0.185000
     10 C3          -2.4070     0.8720     0.4430 c6         1 B0J      -0.097400
     11 O1          -4.2410    -0.7580     0.4390 os         1 B0J      -0.458000
     12 C9           2.8880     1.0110    -0.8320 ca         1 B0J      -0.059000
     13 C11          4.8940     0.4060     0.4070 ca         1 B0J       0.140100
     14 C12          4.3010    -0.8140     0.7710 ca         1 B0J      -0.179000
     15 O2           6.1530     0.7110     0.8270 oh         1 B0J      -0.534100
     16 C14         -4.4160     1.0580    -1.2060 c3         1 B0J      -0.098600
     17 H1           0.0520    -0.2560     0.8890 hn         1 B0J       0.413000
     18 H3          -1.6870     0.1310    -1.4590 h1         1 B0J       0.058700
     19 H4          -1.4640    -2.2560    -0.8020 hc         1 B0J       0.048200
     20 H5          -1.7620    -1.8620     0.8910 hc         1 B0J       0.048200
     21 H6          -3.7610    -1.5560    -1.4400 h1         1 B0J       0.042700
     22 H7          -3.8400    -2.7230    -0.1070 h1         1 B0J       0.042700
     23 H8           0.7610    -1.6360    -0.9670 h1         1 B0J       0.034200
     24 H9           0.7590    -0.1850    -1.9810 h1         1 B0J       0.034200
     25 H10          4.6470     2.2620    -0.6730 ha         1 B0J       0.120000
     26 H11          2.5470    -2.0690     0.6190 ha         1 B0J       0.119000
     27 H12         -4.5110     1.1310     2.2840 hc         1 B0J       0.041700
     28 H13         -4.5930     2.5070     1.1760 hc         1 B0J       0.041700
     29 H14         -5.8420     1.2540     1.1240 hc         1 B0J       0.041700
     30 H15         -2.1740     0.7440     1.5090 hc         1 B0J       0.055200
     31 H16         -2.1470     1.9100     0.1930 hc         1 B0J       0.055200
     32 H17          2.3440     1.7240    -1.4490 ha         1 B0J       0.119000
     33 H18          4.8400    -1.5260     1.3910 ha         1 B0J       0.120000
     34 H19          6.4870    -0.0340     1.3700 ho         1 B0J       0.463000
     35 H20         -5.4660     0.7820    -1.3630 hc         1 B0J       0.041700
     36 H21         -4.3400     2.1440    -1.3410 hc         1 B0J       0.041700
     37 H22         -3.8300     0.6000    -2.0100 hc         1 B0J       0.041700
     38 C1          -4.7670     1.4280     1.2600 c3         1 B0J      -0.098600
@<TRIPOS>BOND
     1     1     2 1   
     2     1     5 1   
     3     1    17 1   
     4     2     3 1   
     5     2    10 1   
     6     2    18 1   
     7     3     4 1   
     8     3    19 1   
     9     3    20 1   
    10     4    11 1   
    11     4    21 1   
    12     4    22 1   
    13     5     6 1   
    14     5    23 1   
    15     5    24 1   
    16     6     8 ar  
    17     6    12 ar  
    18     7    12 ar  
    19     7    13 ar  
    20     7    25 1   
    21     8    14 ar  
    22     8    26 1   
    23     9    10 1   
    24     9    11 1   
    25     9    16 1   
    26     9    38 1   
    27    10    30 1   
    28    10    31 1   
    29    12    32 1   
    30    13    14 ar  
    31    13    15 1   
    32    14    33 1   
    33    15    34 1   
    34    16    35 1   
    35    16    36 1   
    36    16    37 1   
    37    27    38 1   
    38    28    38 1   
    39    29    38 1   
@<TRIPOS>SUBSTRUCTURE
     1 B0J         1 TEMP              0 ****  ****    0 ROOT
