@<TRIPOS>MOLECULE
B0K
   26    27     1     0     0
SMALL
No Charge or Current Charge


@<TRIPOS>ATOM
      1 C2          -0.1330    -1.8580    -0.2900 ca         1 B0K       0.087400
      2 C3           0.9970    -1.0820    -0.4100 ca         1 B0K      -0.051200
      3 C4           0.9310     0.3330    -0.3180 ca         1 B0K       0.006100
      4 C5          -0.3360     0.9270    -0.0850 ca         1 B0K       0.022100
      5 C6          -1.4950     0.1220     0.0460 ca         1 B0K      -0.011900
      6 N9           0.1380    -3.2110    -0.4230 nc         1 B0K      -0.551100
      7 C16          5.6450    -1.0430     0.5280 c3         1 B0K       0.153800
      8 C1          -1.3930    -1.2820    -0.0600 ca         1 B0K       0.057100
      9 C15          4.1620    -1.4380     0.6490 c3         1 B0K      -0.103400
     10 C8           1.4670    -3.2290    -0.6250 cd         1 B0K       0.425700
     11 N17          6.2580    -0.8530     1.8530 n8         1 B0K      -0.991200
     12 N7           2.0540    -1.9540    -0.6270 na         1 B0K      -0.164600
     13 Br1          2.4670     1.4850    -0.5080 br         1 B0K      -0.049100
     14 Br2         -0.4930     2.8440     0.0540 br         1 B0K      -0.031100
     15 Br3         -3.2120     0.9350     0.3620 br         1 B0K      -0.032100
     16 Br4         -2.9420    -2.4110     0.1040 br         1 B0K      -0.020100
     17 H1           3.6390    -0.7740    -1.3730 h1         1 B0K       0.065200
     18 H2           3.9840    -2.4860    -1.2290 h1         1 B0K       0.065200
     19 H3           6.1970    -1.8270    -0.0100 h1         1 B0K       0.027700
     20 H4           5.7320    -0.1040    -0.0370 h1         1 B0K       0.027700
     21 H5           3.6260    -0.6620     1.2080 hc         1 B0K       0.065700
     22 H6           4.0760    -2.3640     1.2300 hc         1 B0K       0.065700
     23 H7           2.0700    -4.1190    -0.7630 h5         1 B0K       0.067800
     24 H8           6.2660    -1.7520     2.3510 hn         1 B0K       0.396500
     25 H9           7.2570    -0.6390     1.7330 hn         1 B0K       0.396500
     26 C14          3.4910    -1.6440    -0.7260 c3         1 B0K       0.075600
@<TRIPOS>BOND
     1     1     2 ar  
     2     1     6 1   
     3     1     8 ar  
     4     2     3 ar  
     5     2    12 1   
     6     3     4 ar  
     7     3    13 1   
     8     4     5 ar  
     9     4    14 1   
    10     5     8 ar  
    11     5    15 1   
    12     6    10 2   
    13     7     9 1   
    14     7    11 1   
    15     7    19 1   
    16     7    20 1   
    17     8    16 1   
    18     9    21 1   
    19     9    22 1   
    20     9    26 1   
    21    10    12 1   
    22    10    23 1   
    23    11    24 1   
    24    11    25 1   
    25    12    26 1   
    26    17    26 1   
    27    18    26 1   
@<TRIPOS>SUBSTRUCTURE
     1 B0K         1 TEMP              0 ****  ****    0 ROOT
