@<TRIPOS>MOLECULE
B0K
   26    27     1     0     0
SMALL
bcc


@<TRIPOS>ATOM
      1 C2          -0.1170    -1.8230    -0.2800 ca         1 B0K       0.087400
      2 C3           1.0200    -0.9990    -0.3890 ca         1 B0K      -0.051200
      3 C4           0.9030     0.3890    -0.3070 ca         1 B0K       0.006100
      4 C5          -0.3640     0.9260    -0.0940 ca         1 B0K       0.022100
      5 C6          -1.5030     0.0990     0.0240 ca         1 B0K      -0.011900
      6 N9           0.2250    -3.1350    -0.4030 nc         1 B0K      -0.551100
      7 C16          5.6270    -1.1020     0.5180 c3         1 B0K       0.153800
      8 C1          -1.3800    -1.2760    -0.0740 ca         1 B0K       0.057100
      9 C15          4.1510    -1.4390     0.6710 c3         1 B0K      -0.103400
     10 C8           1.5120    -3.1160    -0.5780 cd         1 B0K       0.425700
     11 N17          6.2500    -0.9370     1.8210 n8         1 B0K      -0.880800
     12 N7           2.0600    -1.8760    -0.5880 na         1 B0K      -0.135300
     13 BR1          2.3910     1.5100    -0.4930 br         1 B0K      -0.049100
     14 BR2         -0.5660     2.7840     0.0330 br         1 B0K      -0.031100
     15 BR3         -3.1930     0.8540     0.3080 br         1 B0K      -0.032100
     16 BR4         -2.8260    -2.4460     0.0570 br         1 B0K      -0.020100
     17 H1           3.6880    -0.8310    -1.3660 h1         1 B0K       0.065200
     18 H2           3.9090    -2.5450    -1.1610 h1         1 B0K       0.065200
     19 H3           6.1100    -1.8670    -0.1080 h1         1 B0K       0.027700
     20 H4           5.7190    -0.1580    -0.0280 h1         1 B0K       0.027700
     21 H5           3.6550    -0.6350     1.2190 hc         1 B0K       0.065700
     22 H6           4.0370    -2.3470     1.2710 hc         1 B0K       0.065700
     23 H7           2.1310    -3.9920    -0.7130 h5         1 B0K       0.067800
     24 H8           6.3110    -1.8390     2.2780 hn         1 B0K       0.341300
     25 H9           7.2070    -0.6300     1.7000 hn         1 B0K       0.341300
     26 C14          3.4960    -1.6560    -0.6840 c3         1 B0K       0.046300
@<TRIPOS>BOND
     1     1     2 ar  
     2     1     6 1   
     3     1     8 ar  
     4     2     3 ar  
     5     2    12 1   
     6     3     4 ar  
     7     3    13 1   
     8     4     5 ar  
     9     4    14 1   
    10     5     8 ar  
    11     5    15 1   
    12     6    10 2   
    13     7     9 1   
    14     7    11 1   
    15     7    19 1   
    16     7    20 1   
    17     8    16 1   
    18     9    21 1   
    19     9    22 1   
    20     9    26 1   
    21    10    12 1   
    22    10    23 1   
    23    11    24 1   
    24    11    25 1   
    25    12    26 1   
    26    17    26 1   
    27    18    26 1   
@<TRIPOS>SUBSTRUCTURE
     1 B0K         1 TEMP              0 ****  ****    0 ROOT
