@<TRIPOS>MOLECULE
B0M
   35    37     1     0     0
SMALL
No Charge or Current Charge


@<TRIPOS>ATOM
      1 N1          -4.0230     1.0730    -0.1670 n3         1 B0M      -0.717600
      2 N3           3.5560     1.3830     1.1320 na         1 B0M      -0.223700
      3 C4          -2.8820    -0.7390     1.1560 c6         1 B0M       0.092000
      4 C5          -4.0280    -0.3780     0.1730 c6         1 B0M       0.137800
      5 C7           0.8010    -0.8400    -0.1200 ca         1 B0M      -0.126600
      6 C8           1.5690    -1.4860    -1.1290 ca         1 B0M      -0.102000
      7 C10          3.4800    -0.1530    -0.5300 ca         1 B0M      -0.083800
      8 C13          2.7680     0.4620     0.4580 ca         1 B0M      -0.061200
      9 C1          -5.1460     1.4550    -1.0500 c3         1 B0M       0.153100
     10 C2          -2.6970     1.4780    -0.7150 c6         1 B0M       0.137800
     11 C3          -1.5280     1.1210     0.2470 c6         1 B0M       0.092000
     12 N2          -1.5450    -0.3180     0.6460 n          1 B0M      -0.402800
     13 O1          -0.9920    -2.4120    -0.1150 o          1 B0M      -0.595100
     14 C9           2.9190    -1.1400    -1.3470 ca         1 B0M      -0.068000
     15 C11          4.8000     0.3940    -0.5060 cc         1 B0M      -0.242200
     16 C12          4.8330     1.3340     0.5180 cd         1 B0M      -0.156100
     17 C14          1.4260     0.1390     0.6990 ca         1 B0M      -0.097000
     18 H3          -3.0660    -0.2340     2.1150 h1         1 B0M       0.064200
     19 H4          -2.9000    -1.8190     1.3590 h1         1 B0M       0.064200
     20 H5          -4.9870    -0.6610     0.6310 h1         1 B0M       0.041200
     21 H6          -3.9140    -0.9830    -0.7390 h1         1 B0M       0.041200
     22 H7           1.1130    -2.2530    -1.7520 ha         1 B0M       0.125000
     23 H8          -6.1080     1.1930    -0.5900 h1         1 B0M       0.031700
     24 H9          -5.1430     2.5380    -1.2340 h1         1 B0M       0.031700
     25 H10         -5.0750     0.9410    -2.0190 h1         1 B0M       0.031700
     26 H11         -2.5200     0.9780    -1.6800 h1         1 B0M       0.041200
     27 H12         -2.6770     2.5610    -0.9060 h1         1 B0M       0.041200
     28 H13         -0.5880     1.3840    -0.2560 h1         1 B0M       0.064200
     29 H14         -1.6020     1.7430     1.1500 h1         1 B0M       0.064200
     30 H15          3.5060    -1.6270    -2.1230 ha         1 B0M       0.119000
     31 H16          5.6340     0.1340    -1.1560 ha         1 B0M       0.207000
     32 H17          5.6570     1.9620     0.8520 h4         1 B0M       0.212000
     33 H18          0.8880     0.6230     1.5110 ha         1 B0M       0.120000
     34 C6          -0.6410    -1.2570     0.0980 c          1 B0M       0.613700
     35 H2           3.2750     1.9730     1.9100 hn         1 B0M       0.350000
@<TRIPOS>BOND
     1     1     4 1   
     2     1     9 1   
     3     1    10 1   
     4     2     8 1   
     5     2    16 1   
     6     2    35 1   
     7     3     4 1   
     8     3    12 1   
     9     3    18 1   
    10     3    19 1   
    11     4    20 1   
    12     4    21 1   
    13     5     6 ar  
    14     5    17 ar  
    15     5    34 1   
    16     6    14 ar  
    17     6    22 1   
    18     7     8 ar  
    19     7    14 ar  
    20     7    15 1   
    21     8    17 ar  
    22     9    23 1   
    23     9    24 1   
    24     9    25 1   
    25    10    11 1   
    26    10    26 1   
    27    10    27 1   
    28    11    12 1   
    29    11    28 1   
    30    11    29 1   
    31    12    34 1   
    32    13    34 2   
    33    14    30 1   
    34    15    16 2   
    35    15    31 1   
    36    16    32 1   
    37    17    33 1   
@<TRIPOS>SUBSTRUCTURE
     1 B0M         1 TEMP              0 ****  ****    0 ROOT
