@<TRIPOS>MOLECULE
B0M
   35    37     1     0     0
SMALL
bcc


@<TRIPOS>ATOM
      1 N1          -3.9040     1.0000    -0.2630 n3         1 B0M      -0.717600
      2 N3           3.6560     1.2080     1.1510 na         1 B0M      -0.173400
      3 C4          -2.9090    -0.6860     1.1890 c6         1 B0M       0.092000
      4 C5          -3.9240    -0.4050     0.0940 c6         1 B0M       0.137800
      5 C7           0.7080    -0.7240     0.0460 ca         1 B0M      -0.126600
      6 C8           1.2970    -1.2520    -1.1200 ca         1 B0M      -0.120000
      7 C10          3.3310    -0.0750    -0.6550 ca         1 B0M      -0.083800
      8 C13          2.7310     0.4260     0.5230 ca         1 B0M      -0.061200
      9 C1          -4.9020     1.3170    -1.2580 c3         1 B0M       0.153100
     10 C2          -2.5800     1.4070    -0.6870 c6         1 B0M       0.137800
     11 C3          -1.5460     1.1330     0.3940 c6         1 B0M       0.092000
     12 N2          -1.5800    -0.2710     0.7720 n          1 B0M      -0.469800
     13 O1          -0.9020    -2.3980     0.4050 o          1 B0M      -0.595100
     14 C9           2.5860    -0.9240    -1.4820 ca         1 B0M      -0.086000
     15 C11          4.6570     0.4510    -0.6980 cc         1 B0M      -0.192200
     16 C12          4.8070     1.2230     0.4180 cd         1 B0M      -0.106100
     17 C14          1.4230     0.1170     0.8820 ca         1 B0M      -0.115000
     18 H3          -3.1760    -0.1210     2.0870 h1         1 B0M       0.064200
     19 H4          -2.9070    -1.7410     1.4460 h1         1 B0M       0.064200
     20 H5          -4.9210    -0.6670     0.4540 h1         1 B0M       0.041200
     21 H6          -3.7110    -1.0570    -0.7720 h1         1 B0M       0.041200
     22 H7           0.7190    -1.9170    -1.7480 ha         1 B0M       0.143000
     23 H8          -5.8910     1.0310    -0.8990 h1         1 B0M       0.031700
     24 H9          -4.9120     2.3910    -1.4490 h1         1 B0M       0.031700
     25 H10         -4.7340     0.8070    -2.2200 h1         1 B0M       0.031700
     26 H11         -2.2690     0.8920    -1.6140 h1         1 B0M       0.041200
     27 H12         -2.5860     2.4780    -0.9020 h1         1 B0M       0.041200
     28 H13         -0.5640     1.4130     0.0290 h1         1 B0M       0.064200
     29 H14         -1.7590     1.7430     1.2760 h1         1 B0M       0.064200
     30 H15          3.0160    -1.3240    -2.3920 ha         1 B0M       0.137000
     31 H16          5.4040     0.2780    -1.4560 ha         1 B0M       0.157000
     32 H17          5.6590     1.7940     0.7520 h4         1 B0M       0.162000
     33 H18          0.9860     0.5140     1.7900 ha         1 B0M       0.138000
     34 C6          -0.6620    -1.1960     0.4100 c          1 B0M       0.680700
     35 H2           3.5180     1.7020     2.0160 hn         1 B0M       0.299700
@<TRIPOS>BOND
     1     1     4 1   
     2     1     9 1   
     3     1    10 1   
     4     2     8 1   
     5     2    16 1   
     6     2    35 1   
     7     3     4 1   
     8     3    12 1   
     9     3    18 1   
    10     3    19 1   
    11     4    20 1   
    12     4    21 1   
    13     5     6 ar  
    14     5    17 ar  
    15     5    34 1   
    16     6    14 ar  
    17     6    22 1   
    18     7     8 ar  
    19     7    14 ar  
    20     7    15 1   
    21     8    17 ar  
    22     9    23 1   
    23     9    24 1   
    24     9    25 1   
    25    10    11 1   
    26    10    26 1   
    27    10    27 1   
    28    11    12 1   
    29    11    28 1   
    30    11    29 1   
    31    12    34 1   
    32    13    34 2   
    33    14    30 1   
    34    15    16 2   
    35    15    31 1   
    36    16    32 1   
    37    17    33 1   
@<TRIPOS>SUBSTRUCTURE
     1 B0M         1 TEMP              0 ****  ****    0 ROOT
