@<TRIPOS>MOLECULE
B0N
   34    36     1     0     0
SMALL
No Charge or Current Charge


@<TRIPOS>ATOM
      1 C4          -0.7420     1.0120     0.8880 ca         1 B0N      -0.041300
      2 C14         -2.5730    -0.3750     0.1660 ca         1 B0N      -0.079200
      3 C5           0.5900     1.1980     1.6020 c3         1 B0N       0.011200
      4 C6           1.7630     0.9760     0.6570 ca         1 B0N      -0.084300
      5 C7           2.3260     2.0600    -0.0440 ca         1 B0N      -0.098000
      6 C8           3.4030     1.8520    -0.9210 ca         1 B0N      -0.112000
      7 C9           3.9230     0.5590    -1.1040 ca         1 B0N      -0.086000
      8 C10          3.3660    -0.5340    -0.4120 ca         1 B0N      -0.086300
      9 C12          2.2860    -0.3180     0.4670 ca         1 B0N      -0.079000
     10 C13         -1.3520    -0.2620     0.8460 ca         1 B0N      -0.114000
     11 N1          -4.4920    -1.0430    -0.7860 nc         1 B0N      -0.165400
     12 N2          -4.3670     0.2630    -1.0330 nd         1 B0N      -0.220400
     13 C3          -1.3710     2.1140     0.2510 ca         1 B0N      -0.130000
     14 N           -3.3890    -1.4460    -0.0470 na         1 B0N       0.066600
     15 C           -3.1510    -2.8160     0.4230 c3         1 B0N       0.073900
     16 O            4.9650    -2.2020     0.3260 oh         1 B0N      -0.654000
     17 C1          -3.1790     0.6750    -0.4430 ca         1 B0N       0.011400
     18 C2          -2.6020     1.9520    -0.4220 ca         1 B0N      -0.029000
     19 H1           0.6430     2.2030     2.0400 hc         1 B0N       0.057200
     20 H2           0.6580     0.5090     2.4530 hc         1 B0N       0.057200
     21 H3           3.1100    -2.6680    -0.5010 h1         1 B0N       0.024200
     22 H4           4.3020    -2.0300    -1.6430 h1         1 B0N       0.024200
     23 H5           1.9280     3.0640     0.0900 ha         1 B0N       0.110000
     24 H6           3.8360     2.6920    -1.4590 ha         1 B0N       0.115000
     25 H7           4.7580     0.4060    -1.7850 ha         1 B0N       0.114000
     26 H8           1.8530    -1.1590     1.0030 ha         1 B0N       0.111000
     27 H9          -0.8900    -1.1240     1.3210 ha         1 B0N       0.122000
     28 H10         -0.9020     3.0950     0.2760 ha         1 B0N       0.119000
     29 H11         -3.0910    -2.8210     1.5180 h1         1 B0N       0.059700
     30 H12         -3.9720    -3.4690     0.1020 h1         1 B0N       0.059700
     31 H13         -2.2080    -3.1870     0.0050 h1         1 B0N       0.059700
     32 H14          5.2830    -3.1140     0.1450 ho         1 B0N       0.440000
     33 H15         -3.0880     2.7910    -0.9130 ha         1 B0N       0.134000
     34 C11          3.9210    -1.9370    -0.6170 c3         1 B0N       0.207900
@<TRIPOS>BOND
     1     1     3 1   
     2     1    10 ar  
     3     1    13 ar  
     4     2    10 ar  
     5     2    14 1   
     6     2    17 ar  
     7     3     4 1   
     8     3    19 1   
     9     3    20 1   
    10     4     5 ar  
    11     4     9 ar  
    12     5     6 ar  
    13     5    23 1   
    14     6     7 ar  
    15     6    24 1   
    16     7     8 ar  
    17     7    25 1   
    18     8     9 ar  
    19     8    34 1   
    20     9    26 1   
    21    10    27 1   
    22    11    12 2   
    23    11    14 1   
    24    12    17 1   
    25    13    18 ar  
    26    13    28 1   
    27    14    15 1   
    28    15    29 1   
    29    15    30 1   
    30    15    31 1   
    31    16    32 1   
    32    16    34 1   
    33    17    18 ar  
    34    18    33 1   
    35    21    34 1   
    36    22    34 1   
@<TRIPOS>SUBSTRUCTURE
     1 B0N         1 TEMP              0 ****  ****    0 ROOT
