@<TRIPOS>MOLECULE
B0N
   34    36     1     0     0
SMALL
abcg2


@<TRIPOS>ATOM
      1 C4          -0.6940     0.8400     0.8290 ca         1 B0N      -0.041300
      2 C14         -2.5430    -0.5080     0.2320 ca         1 B0N      -0.079200
      3 C5           0.5730     1.0970     1.6050 c3         1 B0N       0.011200
      4 C6           1.7920     1.0010     0.7210 ca         1 B0N      -0.084300
      5 C7           2.4700     2.1420     0.3070 ca         1 B0N      -0.098000
      6 C8           3.5710     2.0420    -0.5340 ca         1 B0N      -0.112000
      7 C9           4.0090     0.7980    -0.9610 ca         1 B0N      -0.086000
      8 C10          3.3480    -0.3590    -0.5530 ca         1 B0N      -0.086300
      9 C12          2.2480    -0.2420     0.2890 ca         1 B0N      -0.079000
     10 C13         -1.3890    -0.3380     1.0020 ca         1 B0N      -0.114000
     11 N1          -4.4010    -1.1600    -0.7460 nc         1 B0N      -0.165400
     12 N2          -4.1380    -0.0140    -1.2500 nd         1 B0N      -0.220400
     13 C3          -1.1440     1.8140    -0.0990 ca         1 B0N      -0.130000
     14 N           -3.4700    -1.4890     0.1440 na         1 B0N       0.066600
     15 C           -3.5150    -2.7480     0.8470 c3         1 B0N       0.073900
     16 O            4.7410    -2.1700     0.0390 oh         1 B0N      -0.654000
     17 C1          -2.9900     0.4490    -0.6780 ca         1 B0N       0.011400
     18 C2          -2.2770     1.6410    -0.8560 ca         1 B0N      -0.029000
     19 H1           0.5290     2.0910     2.0560 hc         1 B0N       0.057200
     20 H2           0.6480     0.3800     2.4250 hc         1 B0N       0.057200
     21 H3           3.0060    -2.3980    -1.0870 h1         1 B0N       0.024200
     22 H4           4.3490    -1.6400    -1.9360 h1         1 B0N       0.024200
     23 H5           2.1390     3.1170     0.6460 ha         1 B0N       0.110000
     24 H6           4.0890     2.9380    -0.8540 ha         1 B0N       0.115000
     25 H7           4.8670     0.7230    -1.6180 ha         1 B0N       0.114000
     26 H8           1.7190    -1.1380     0.5960 ha         1 B0N       0.111000
     27 H9          -1.0480    -1.0930     1.6990 ha         1 B0N       0.122000
     28 H10         -0.5710     2.7270    -0.2090 ha         1 B0N       0.119000
     29 H11         -3.3520    -2.5830     1.9100 h1         1 B0N       0.059700
     30 H12         -4.4980    -3.1870     0.7060 h1         1 B0N       0.059700
     31 H13         -2.7530    -3.4280     0.4690 h1         1 B0N       0.059700
     32 H14          4.9860    -3.0750    -0.1770 ho         1 B0N       0.440000
     33 H15         -2.6100     2.3980    -1.5530 ha         1 B0N       0.134000
     34 C11          3.8520    -1.7130    -0.9610 c3         1 B0N       0.207900
@<TRIPOS>BOND
     1     1     3 1   
     2     1    10 ar  
     3     1    13 ar  
     4     2    10 ar  
     5     2    14 1   
     6     2    17 ar  
     7     3     4 1   
     8     3    19 1   
     9     3    20 1   
    10     4     5 ar  
    11     4     9 ar  
    12     5     6 ar  
    13     5    23 1   
    14     6     7 ar  
    15     6    24 1   
    16     7     8 ar  
    17     7    25 1   
    18     8     9 ar  
    19     8    34 1   
    20     9    26 1   
    21    10    27 1   
    22    11    12 2   
    23    11    14 1   
    24    12    17 1   
    25    13    18 ar  
    26    13    28 1   
    27    14    15 1   
    28    15    29 1   
    29    15    30 1   
    30    15    31 1   
    31    16    32 1   
    32    16    34 1   
    33    17    18 ar  
    34    18    33 1   
    35    21    34 1   
    36    22    34 1   
@<TRIPOS>SUBSTRUCTURE
     1 B0N         1 TEMP              0 ****  ****    0 ROOT
