@<TRIPOS>MOLECULE
B0O
   50    53     1     0     0
SMALL
bcc


@<TRIPOS>ATOM
      1 C02         -1.0630    -2.5020     0.9790 c          1 B0O       0.717700
      2 C03         -1.0170    -1.1560     0.4770 cc         1 B0O      -0.332400
      3 C04          0.1890    -0.5730     0.1820 cd         1 B0O       0.250100
      4 C05          1.4170    -1.3080     0.2420 cd         1 B0O      -0.151200
      5 C06          2.7200    -0.7330    -0.1530 ca         1 B0O      -0.020800
      6 C07          3.4330    -1.2920    -1.2130 ca         1 B0O      -0.113500
      7 C08          4.6780    -0.7910    -1.5740 ca         1 B0O      -0.130500
      8 C09          5.2230     0.2820    -0.8840 ca         1 B0O      -0.125000
      9 C10          4.5210     0.8460     0.1750 ca         1 B0O      -0.130500
     10 C11          3.2810     0.3400     0.5390 ca         1 B0O      -0.113500
     11 C12          1.3290    -2.6010     0.6410 cc         1 B0O       0.040600
     12 C15         -0.8130     1.5730    -0.2740 c6         1 B0O       0.194300
     13 C16         -0.3620     2.9660     0.0360 c2         1 B0O      -0.193200
     14 C17          0.7660     3.3240     0.6400 c2         1 B0O      -0.136200
     15 C18          1.1490     4.7370     0.9360 c3         1 B0O      -0.062900
     16 C19         -1.9530     1.1070     0.6400 c6         1 B0O      -0.085700
     17 C20         -2.2800    -0.3620     0.3430 c6         1 B0O       0.015500
     18 C21         -2.9560    -0.5230    -1.0370 c6         1 B0O      -0.051700
     19 C22         -3.3110    -1.9650    -1.3770 c3         1 B0O      -0.081100
     20 C23         -4.1990     0.3630    -1.1200 c6         1 B0O      -0.075400
     21 C24         -3.9000     1.8270    -0.8270 c6         1 B0O      -0.075400
     22 C25         -3.2010     1.9810     0.5180 c6         1 B0O      -0.066400
     23 N13          0.1530    -3.1550     1.0000 ns         1 B0O      -0.437100
     24 O01         -2.0730    -3.0810     1.3800 o          1 B0O      -0.647500
     25 O14          0.3180     0.6990    -0.1980 os         1 B0O      -0.312900
     26 H2           3.0080    -2.1220    -1.7640 ha         1 B0O       0.131500
     27 H3           5.2180    -1.2390    -2.3980 ha         1 B0O       0.130000
     28 H4           6.1910     0.6760    -1.1650 ha         1 B0O       0.130000
     29 H5           4.9430     1.6760     0.7260 ha         1 B0O       0.130000
     30 H6           2.7560     0.7680     1.3830 ha         1 B0O       0.131500
     31 H7           2.1960    -3.2430     0.7100 h4         1 B0O       0.155000
     32 H8          -1.1540     1.5580    -1.3150 h1         1 B0O       0.065700
     33 H9          -1.0600     3.7380    -0.2740 ha         1 B0O       0.127000
     34 H10          1.4800     2.5660     0.9430 ha         1 B0O       0.130000
     35 H11          0.3850     5.4440     0.6130 hc         1 B0O       0.041033
     36 H12          1.3120     4.8800     2.0070 hc         1 B0O       0.041033
     37 H13          2.0860     5.0020     0.4420 hc         1 B0O       0.041033
     38 H14         -1.5890     1.1760     1.6710 hc         1 B0O       0.063700
     39 H15         -2.9910    -0.7080     1.1010 hc         1 B0O       0.079700
     40 H16         -2.2470    -0.1840    -1.8030 hc         1 B0O       0.039700
     41 H17         -3.9980    -2.3930    -0.6460 hc         1 B0O       0.036367
     42 H18         -3.7960    -2.0040    -2.3540 hc         1 B0O       0.036367
     43 H19         -2.4290    -2.6030    -1.4270 hc         1 B0O       0.036367
     44 H20         -4.6480     0.2620    -2.1120 hc         1 B0O       0.041700
     45 H21         -4.9460    -0.0070    -0.4060 hc         1 B0O       0.041700
     46 H22         -3.2860     2.2450    -1.6300 hc         1 B0O       0.038200
     47 H23         -4.8250     2.4090    -0.8250 hc         1 B0O       0.038200
     48 H24         -3.8930     1.6810     1.3120 hc         1 B0O       0.044700
     49 H25         -2.9640     3.0280     0.7140 hc         1 B0O       0.044700
     50 H26          0.1510    -4.1090     1.3330 hn         1 B0O       0.329500
@<TRIPOS>BOND
     1     1     2 1   
     2     1    23 1   
     3     1    24 2   
     4     2     3 2   
     5     2    17 1   
     6     3     4 1   
     7     3    25 1   
     8     4     5 1   
     9     4    11 2   
    10     5     6 ar  
    11     5    10 ar  
    12     6     7 ar  
    13     6    26 1   
    14     7     8 ar  
    15     7    27 1   
    16     8     9 ar  
    17     8    28 1   
    18     9    10 ar  
    19     9    29 1   
    20    10    30 1   
    21    11    23 1   
    22    11    31 1   
    23    12    13 1   
    24    12    16 1   
    25    12    25 1   
    26    12    32 1   
    27    13    14 2   
    28    13    33 1   
    29    14    15 1   
    30    14    34 1   
    31    15    35 1   
    32    15    36 1   
    33    15    37 1   
    34    16    17 1   
    35    16    22 1   
    36    16    38 1   
    37    17    18 1   
    38    17    39 1   
    39    18    19 1   
    40    18    20 1   
    41    18    40 1   
    42    19    41 1   
    43    19    42 1   
    44    19    43 1   
    45    20    21 1   
    46    20    44 1   
    47    20    45 1   
    48    21    22 1   
    49    21    46 1   
    50    21    47 1   
    51    22    48 1   
    52    22    49 1   
    53    23    50 1   
@<TRIPOS>SUBSTRUCTURE
     1 B0O         1 TEMP              0 ****  ****    0 ROOT
