@<TRIPOS>MOLECULE
B0O
   50    53     1     0     0
SMALL
No Charge or Current Charge


@<TRIPOS>ATOM
      1 C02         -1.0240    -2.5530     0.7960 c          1 B0O       0.575200
      2 C03         -0.9400    -1.1380     0.3770 cc         1 B0O      -0.332400
      3 C04          0.2900    -0.5720     0.0560 cd         1 B0O       0.250100
      4 C05          1.5210    -1.3560     0.0560 cd         1 B0O      -0.151200
      5 C06          2.8590    -0.8260    -0.3320 ca         1 B0O      -0.020800
      6 C07          3.8100    -1.6750    -0.9480 ca         1 B0O      -0.095500
      7 C08          5.0820    -1.1990    -1.3140 ca         1 B0O      -0.112500
      8 C09          5.4340     0.1340    -1.0610 ca         1 B0O      -0.107000
      9 C10          4.5140     0.9870    -0.4360 ca         1 B0O      -0.112500
     10 C11          3.2420     0.5120    -0.0730 ca         1 B0O      -0.095500
     11 C12          1.3720    -2.7070     0.3230 cc         1 B0O      -0.009400
     12 C15         -0.7880     1.6260    -0.3030 c6         1 B0O       0.217500
     13 C16         -0.3330     3.0520    -0.0240 c2         1 B0O      -0.243200
     14 C17          0.3900     3.4170     1.0480 c2         1 B0O      -0.186200
     15 C18          0.8520     4.8260     1.3500 c3         1 B0O      -0.062900
     16 C19         -1.8850     1.1440     0.6860 c6         1 B0O      -0.085700
     17 C20         -2.2390    -0.3370     0.3780 c6         1 B0O       0.015500
     18 C21         -3.0200    -0.4660    -0.9850 c6         1 B0O      -0.051700
     19 C22         -3.4300    -1.9210    -1.3450 c3         1 B0O      -0.081100
     20 C23         -4.2810     0.4460    -0.9810 c6         1 B0O      -0.075400
     21 C24         -3.9350     1.9200    -0.6660 c6         1 B0O      -0.075400
     22 C25         -3.1630     2.0330     0.6690 c6         1 B0O      -0.066400
     23 N13          0.1520    -3.2350     0.7020 ns         1 B0O      -0.370100
     24 O01         -2.0320    -3.1120     1.1960 o          1 B0O      -0.572000
     25 O14          0.3620     0.7630    -0.2590 os         1 B0O      -0.336100
     26 H2           3.5660    -2.7070    -1.1830 ha         1 B0O       0.113500
     27 H3           5.7920    -1.8650    -1.7980 ha         1 B0O       0.112000
     28 H4           6.4190     0.5020    -1.3410 ha         1 B0O       0.112000
     29 H5           4.7890     2.0180    -0.2220 ha         1 B0O       0.112000
     30 H6           2.5790     1.1920     0.4520 ha         1 B0O       0.113500
     31 H7           2.1660    -3.4470     0.3380 h4         1 B0O       0.205000
     32 H8          -1.1800     1.5910    -1.3280 h1         1 B0O       0.065700
     33 H9          -0.6380     3.7910    -0.7660 ha         1 B0O       0.177000
     34 H10          0.6940     2.6750     1.7900 ha         1 B0O       0.180000
     35 H11          0.5250     5.5340     0.5790 hc         1 B0O       0.041033
     36 H12          0.4540     5.1710     2.3110 hc         1 B0O       0.041033
     37 H13          1.9470     4.8750     1.4040 hc         1 B0O       0.041033
     38 H14         -1.4640     1.1900     1.7010 hc         1 B0O       0.063700
     39 H15         -2.9000    -0.6880     1.1840 hc         1 B0O       0.079700
     40 H16         -2.3690    -0.1480    -1.8090 hc         1 B0O       0.039700
     41 H17         -4.0470    -2.3710    -0.5590 hc         1 B0O       0.036367
     42 H18         -4.0110    -1.9480    -2.2750 hc         1 B0O       0.036367
     43 H19         -2.5540    -2.5600    -1.5030 hc         1 B0O       0.036367
     44 H20         -4.7860     0.3940    -1.9550 hc         1 B0O       0.041700
     45 H21         -5.0020     0.0760    -0.2390 hc         1 B0O       0.041700
     46 H22         -3.3450     2.3500    -1.4870 hc         1 B0O       0.038200
     47 H23         -4.8580     2.5120    -0.6100 hc         1 B0O       0.038200
     48 H24         -3.8240     1.7300     1.4930 hc         1 B0O       0.044700
     49 H25         -2.9060     3.0830     0.8640 hc         1 B0O       0.044700
     50 H26          0.0910    -4.2140     0.9570 hn         1 B0O       0.329500
@<TRIPOS>BOND
     1     1     2 1   
     2     1    23 1   
     3     1    24 2   
     4     2     3 2   
     5     2    17 1   
     6     3     4 1   
     7     3    25 1   
     8     4     5 1   
     9     4    11 2   
    10     5     6 ar  
    11     5    10 ar  
    12     6     7 ar  
    13     6    26 1   
    14     7     8 ar  
    15     7    27 1   
    16     8     9 ar  
    17     8    28 1   
    18     9    10 ar  
    19     9    29 1   
    20    10    30 1   
    21    11    23 1   
    22    11    31 1   
    23    12    13 1   
    24    12    16 1   
    25    12    25 1   
    26    12    32 1   
    27    13    14 2   
    28    13    33 1   
    29    14    15 1   
    30    14    34 1   
    31    15    35 1   
    32    15    36 1   
    33    15    37 1   
    34    16    17 1   
    35    16    22 1   
    36    16    38 1   
    37    17    18 1   
    38    17    39 1   
    39    18    19 1   
    40    18    20 1   
    41    18    40 1   
    42    19    41 1   
    43    19    42 1   
    44    19    43 1   
    45    20    21 1   
    46    20    44 1   
    47    20    45 1   
    48    21    22 1   
    49    21    46 1   
    50    21    47 1   
    51    22    48 1   
    52    22    49 1   
    53    23    50 1   
@<TRIPOS>SUBSTRUCTURE
     1 B0O         1 TEMP              0 ****  ****    0 ROOT
