@<TRIPOS>MOLECULE
B0Q
   41    44     1     0     0
SMALL
No Charge or Current Charge


@<TRIPOS>ATOM
      1 CAA         -4.1910    -2.6820     0.4620 c3         1 B0Q       0.072900
      2 CAC          3.8980    -3.2950    -1.3970 ca         1 B0Q      -0.094000
      3 CAD          4.4610    -2.0300    -1.6360 ca         1 B0Q      -0.112500
      4 CAE          3.1970    -3.5340    -0.2030 ca         1 B0Q      -0.112500
      5 CAF          3.2300     3.2220     0.2150 cc         1 B0Q       0.234900
      6 CAG          4.3230    -1.0050    -0.6840 ca         1 B0Q      -0.087500
      7 CAH          3.0590    -2.5100     0.7500 ca         1 B0Q      -0.087500
      8 CAI         -2.6890     2.1550    -0.8240 ca         1 B0Q      -0.179000
      9 CAJ         -4.0570     1.9140    -1.0850 ca         1 B0Q      -0.002000
     10 CAK          3.9730     2.2360     0.7960 cd         1 B0Q      -0.209000
     11 CAL         -2.4160    -0.1200     0.0290 ca         1 B0Q      -0.152000
     12 CAM          3.4620    -0.1320     1.5600 c3         1 B0Q       0.115900
     13 CAR          0.5610     0.7720     0.5320 c          1 B0Q       0.551600
     14 CAS          3.6160    -1.2370     0.5150 ca         1 B0Q      -0.122300
     15 CAT         -1.8580     1.1490    -0.2660 ca         1 B0Q       0.012000
     16 CAU          1.8430     1.5790     0.5200 cd         1 B0Q       0.325000
     17 CAV         -4.5770     0.6500    -0.7800 ca         1 B0Q      -0.012600
     18 CAW         -3.7770    -0.3100    -0.2480 ca         1 B0Q      -0.056200
     19 NAN          1.9340     2.8290     0.0440 nc         1 B0Q      -0.675000
     20 NAO         -5.8750     0.1700    -0.9420 nc         1 B0Q      -0.215400
     21 NAP         -5.8800    -1.0940    -0.5090 nd         1 B0Q      -0.169400
     22 NAQ         -0.4940     1.4770    -0.0390 ns         1 B0Q      -0.124000
     23 NAX         -4.5970    -1.3820    -0.0870 na         1 B0Q       0.065600
     24 NAY          3.0990     1.1790     0.9910 na         1 B0Q      -0.111500
     25 OAB          0.4510    -0.3630     0.9950 o          1 B0Q      -0.602100
     26 H1          -3.8140    -2.5460     1.4830 h1         1 B0Q       0.060700
     27 H2          -5.0490    -3.3650     0.4810 h1         1 B0Q       0.060700
     28 H3          -3.4000    -3.1130    -0.1640 h1         1 B0Q       0.060700
     29 H5           5.0070    -1.8440    -2.5590 ha         1 B0Q       0.117000
     30 H6           2.7610    -4.5130    -0.0160 ha         1 B0Q       0.117000
     31 H7           3.5500     4.2080    -0.0980 h4         1 B0Q       0.044100
     32 H8           4.7700    -0.0330    -0.8810 ha         1 B0Q       0.118500
     33 H9           2.5120    -2.7070     1.6700 ha         1 B0Q       0.118500
     34 H10         -2.2730     3.1320    -1.0570 ha         1 B0Q       0.120000
     35 H11         -4.6910     2.6880    -1.5120 ha         1 B0Q       0.136000
     36 H12          5.0220     2.2120     1.0670 h4         1 B0Q       0.163000
     37 H13         -1.8310    -0.9320     0.4500 ha         1 B0Q       0.155000
     38 H14          2.7040    -0.4160     2.3010 h1         1 B0Q       0.082200
     39 H15          4.4110    -0.0250     2.1000 h1         1 B0Q       0.082200
     40 H16         -0.2320     2.4020    -0.3570 hn         1 B0Q       0.191000
     41 H4           4.0050    -4.0870    -2.1350 ha         1 B0Q       0.116000
@<TRIPOS>BOND
     1     1    23 1   
     2     1    26 1   
     3     1    27 1   
     4     1    28 1   
     5     2     3 ar  
     6     2     4 ar  
     7     2    41 1   
     8     3     6 ar  
     9     3    29 1   
    10     4     7 ar  
    11     4    30 1   
    12     5    10 2   
    13     5    19 1   
    14     5    31 1   
    15     6    14 ar  
    16     6    32 1   
    17     7    14 ar  
    18     7    33 1   
    19     8     9 ar  
    20     8    15 ar  
    21     8    34 1   
    22     9    17 ar  
    23     9    35 1   
    24    10    24 1   
    25    10    36 1   
    26    11    15 ar  
    27    11    18 ar  
    28    11    37 1   
    29    12    14 1   
    30    12    24 1   
    31    12    38 1   
    32    12    39 1   
    33    13    16 1   
    34    13    22 1   
    35    13    25 2   
    36    15    22 1   
    37    16    19 2   
    38    16    24 1   
    39    17    18 ar  
    40    17    20 1   
    41    18    23 1   
    42    20    21 2   
    43    21    23 1   
    44    22    40 1   
@<TRIPOS>SUBSTRUCTURE
     1 B0Q         1 TEMP              0 ****  ****    0 ROOT
