@<TRIPOS>MOLECULE
B0Q
   41    44     1     0     0
SMALL
bcc


@<TRIPOS>ATOM
      1 CAA         -4.6040    -2.4740     1.0640 c3         1 B0Q       0.043600
      2 CAC          5.0910    -3.0230    -1.3740 ca         1 B0Q      -0.112000
      3 CAD          5.8420    -2.2930    -0.4640 ca         1 B0Q      -0.130500
      4 CAE          3.7090    -2.8760    -1.4030 ca         1 B0Q      -0.130500
      5 CAF          2.9940     2.8720    -0.3820 cc         1 B0Q       0.300200
      6 CAG          5.2120    -1.4150     0.4100 ca         1 B0Q      -0.105500
      7 CAH          3.0820    -2.0020    -0.5270 ca         1 B0Q      -0.105500
      8 CAI         -2.9120     2.0890    -0.8080 ca         1 B0Q      -0.197000
      9 CAJ         -4.2700     1.9520    -0.9170 ca         1 B0Q      -0.020000
     10 CAK          3.6930     1.9010     0.2840 cd         1 B0Q      -0.241600
     11 CAL         -2.6310    -0.1060     0.2290 ca         1 B0Q      -0.170000
     12 CAM          3.1620    -0.2860     1.3190 c3         1 B0Q       0.086600
     13 CAR          0.2950     0.6570     0.3060 c          1 B0Q       0.618600
     14 CAS          3.8300    -1.2610     0.3860 ca         1 B0Q      -0.122300
     15 CAT         -2.0860     1.0770    -0.2410 ca         1 B0Q       0.104600
     16 CAU          1.5870     1.3630     0.1580 cd         1 B0Q       0.325000
     17 CAV         -4.8360     0.7620    -0.4460 ca         1 B0Q      -0.012600
     18 CAW         -4.0170    -0.2220     0.1060 ca         1 B0Q      -0.056200
     19 NAN          1.6890     2.5260    -0.4500 nc         1 B0Q      -0.675000
     20 NAO         -6.1230     0.3170    -0.4060 nc         1 B0Q      -0.215400
     21 NAP         -6.1270    -0.8460     0.1230 nd         1 B0Q      -0.169400
     22 NAQ         -0.7290     1.3820    -0.2020 ns         1 B0Q      -0.450100
     23 NAX         -4.8850    -1.2030     0.4410 na         1 B0Q       0.094900
     24 NAY          2.7900     0.9470     0.6280 na         1 B0Q      -0.132900
     25 OAB          0.1840    -0.4410     0.8260 o          1 B0Q      -0.602100
     26 H1          -4.2020    -2.3270     2.0650 h1         1 B0Q       0.060700
     27 H2          -5.5320    -3.0340     1.1300 h1         1 B0Q       0.060700
     28 H3          -3.8880    -3.0350     0.4680 h1         1 B0Q       0.060700
     29 H5           6.9180    -2.4050    -0.4320 ha         1 B0Q       0.135000
     30 H6           3.1170    -3.4460    -2.1070 ha         1 B0Q       0.135000
     31 H7           3.3690     3.7920    -0.8020 h4         1 B0Q       0.044100
     32 H8           5.8050    -0.8490     1.1190 ha         1 B0Q       0.136500
     33 H9           2.0040    -1.9010    -0.5510 ha         1 B0Q       0.136500
     34 H10         -2.4430     2.9980    -1.1620 ha         1 B0Q       0.138000
     35 H11         -4.8750     2.7370    -1.3510 ha         1 B0Q       0.154000
     36 H12          4.7370     1.8170     0.5400 h4         1 B0Q       0.181000
     37 H13         -2.0350    -0.8910     0.6650 ha         1 B0Q       0.173000
     38 H14          2.2730    -0.7120     1.7710 h1         1 B0Q       0.082200
     39 H15          3.8390    -0.0090     2.1260 h1         1 B0Q       0.082200
     40 H16         -0.4580     2.2720    -0.6020 hn         1 B0Q       0.357500
     41 H4           5.5790    -3.7070    -2.0560 ha         1 B0Q       0.134000
@<TRIPOS>BOND
     1     1    23 1   
     2     1    26 1   
     3     1    27 1   
     4     1    28 1   
     5     2     3 ar  
     6     2     4 ar  
     7     2    41 1   
     8     3     6 ar  
     9     3    29 1   
    10     4     7 ar  
    11     4    30 1   
    12     5    10 2   
    13     5    19 1   
    14     5    31 1   
    15     6    14 ar  
    16     6    32 1   
    17     7    14 ar  
    18     7    33 1   
    19     8     9 ar  
    20     8    15 ar  
    21     8    34 1   
    22     9    17 ar  
    23     9    35 1   
    24    10    24 1   
    25    10    36 1   
    26    11    15 ar  
    27    11    18 ar  
    28    11    37 1   
    29    12    14 1   
    30    12    24 1   
    31    12    38 1   
    32    12    39 1   
    33    13    16 1   
    34    13    22 1   
    35    13    25 2   
    36    15    22 1   
    37    16    19 2   
    38    16    24 1   
    39    17    18 ar  
    40    17    20 1   
    41    18    23 1   
    42    20    21 2   
    43    21    23 1   
    44    22    40 1   
@<TRIPOS>SUBSTRUCTURE
     1 B0Q         1 TEMP              0 ****  ****    0 ROOT
