@<TRIPOS>MOLECULE
B0R
   46    48     1     0     0
SMALL
No Charge or Current Charge


@<TRIPOS>ATOM
      1 C1           5.4780     0.6060     0.3020 ca         1 B0R      -0.222000
      2 C2           5.8100     0.9270     1.6040 ca         1 B0R       0.255000
      3 N3           4.8510     1.1190     2.5280 nb         1 B0R      -0.630000
      4 C4           3.5520     0.9870     2.1420 ca         1 B0R       0.397900
      5 C5           3.1530     0.6550     0.8160 ca         1 B0R      -0.154000
      6 C6           4.1620     0.4600    -0.1440 ca         1 B0R       0.005000
      7 C7           6.7090     0.4830    -0.3700 cc         1 B0R       0.147000
      8 N8           7.7290     0.7270     0.5240 na         1 B0R      -0.057500
      9 N9           7.2040     1.0140     1.7940 nc         1 B0R      -0.257400
     10 N10          1.7930     0.5170     0.4020 ns         1 B0R      -0.146000
     11 C11          0.5940     0.5590     1.1050 c          1 B0R       0.630700
     12 C12         -0.6670     0.3630     0.2910 ca         1 B0R      -0.239600
     13 O13          0.5560     0.7100     2.3190 o          1 B0R      -0.553100
     14 C14         -1.8850     0.9520     0.7140 ca         1 B0R       0.208000
     15 C15         -3.0910     0.7850    -0.0170 ca         1 B0R       0.181000
     16 C16         -3.0600     0.0140    -1.1970 ca         1 B0R      -0.009000
     17 C17         -1.8630    -0.5800    -1.6240 ca         1 B0R      -0.164000
     18 C18         -0.6810    -0.4110    -0.8920 ca         1 B0R       0.228000
     19 F19          0.4260    -1.0460    -1.3370 f          1 B0R      -0.158000
     20 F20         -1.9160     1.7280     1.8260 f          1 B0R      -0.160000
     21 N21         -4.2760     1.4010     0.4390 nu         1 B0R      -0.883100
     22 S22         -5.8650     0.9680     0.2080 s6         1 B0R       1.179100
     23 C23         -5.9590    -0.7450     0.7480 c3         1 B0R      -0.335400
     24 C24         -7.3830    -1.3420     0.6400 c3         1 B0R      -0.044400
     25 C25         -7.4380    -2.8090     1.1060 c3         1 B0R      -0.085100
     26 O26         -6.6170     1.8070     1.1410 o          1 B0R      -0.522500
     27 O27         -6.1130     1.0490    -1.2330 o          1 B0R      -0.522500
     28 O28          6.8180     0.1680    -1.6990 os         1 B0R      -0.303100
     29 C29          8.1110     0.0590    -2.3170 c3         1 B0R       0.135900
     30 H4           2.8270     1.1630     2.9320 h4         1 B0R       0.031100
     31 H6           3.9380     0.2060    -1.1780 ha         1 B0R       0.127000
     32 HN10         1.6800     0.3610    -0.5920 hn         1 B0R       0.162000
     33 H16         -3.9540    -0.1290    -1.7950 ha         1 B0R       0.153000
     34 H17         -1.8510    -1.1810    -2.5300 ha         1 B0R       0.150000
     35 HN21        -4.2510     1.8740     1.3350 hn         1 B0R       0.501000
     36 H23         -5.2580    -1.3060     0.1220 h1         1 B0R       0.097700
     37 H23A        -5.6110    -0.7570     1.7860 h1         1 B0R       0.097700
     38 H24         -8.0810    -0.7500     1.2460 hc         1 B0R       0.056700
     39 H24A        -7.7310    -1.2850    -0.4000 hc         1 B0R       0.056700
     40 H25         -8.4590    -3.2000     1.0170 hc         1 B0R       0.038033
     41 H25A        -6.7760    -3.4340     0.4960 hc         1 B0R       0.038033
     42 H25B        -7.1280    -2.8940     2.1540 hc         1 B0R       0.038033
     43 H29          8.7100    -0.7250    -1.8370 h1         1 B0R       0.053367
     44 H29A         8.0040    -0.1980    -3.3790 h1         1 B0R       0.053367
     45 H29B         8.6570     1.0090    -2.2520 h1         1 B0R       0.053367
     46 HN8          8.7260     0.7140     0.3450 hn         1 B0R       0.374000
@<TRIPOS>BOND
     1     1     2 ar  
     2     1     6 ar  
     3     1     7 2   
     4     2     3 ar  
     5     2     9 2   
     6     3     4 ar  
     7     4     5 ar  
     8     4    30 1   
     9     5     6 ar  
    10     5    10 1   
    11     6    31 1   
    12     7     8 1   
    13     7    28 1   
    14     8     9 1   
    15     8    46 1   
    16    10    11 1   
    17    10    32 1   
    18    11    12 1   
    19    11    13 2   
    20    12    14 ar  
    21    12    18 ar  
    22    14    15 ar  
    23    14    20 1   
    24    15    16 ar  
    25    15    21 1   
    26    16    17 ar  
    27    16    33 1   
    28    17    18 ar  
    29    17    34 1   
    30    18    19 1   
    31    21    22 1   
    32    21    35 1   
    33    22    23 1   
    34    22    26 2   
    35    22    27 2   
    36    23    24 1   
    37    23    36 1   
    38    23    37 1   
    39    24    25 1   
    40    24    38 1   
    41    24    39 1   
    42    25    40 1   
    43    25    41 1   
    44    25    42 1   
    45    28    29 1   
    46    29    43 1   
    47    29    44 1   
    48    29    45 1   
@<TRIPOS>SUBSTRUCTURE
     1 B0R         1 TEMP              0 ****  ****    0 ROOT
