@<TRIPOS>MOLECULE
B0R
   46    48     1     0     0
SMALL
bcc


@<TRIPOS>ATOM
      1 C1           4.7790     0.2420     0.2460 ca         1 B0R      -0.287300
      2 C2           5.1140    -1.0080     0.8360 ca         1 B0R       0.320300
      3 N3           4.2880    -2.0790     0.8230 nb         1 B0R      -0.630000
      4 C4           3.1410    -1.8990     0.2350 ca         1 B0R       0.463200
      5 C5           2.7050    -0.6790    -0.3630 ca         1 B0R      -0.126700
      6 C6           3.5290     0.4130    -0.3620 ca         1 B0R      -0.013000
      7 C7           5.9040     1.0310     0.4860 cc         1 B0R       0.147000
      8 N8           6.7600     0.2500     1.1510 na         1 B0R      -0.007200
      9 N9           6.3190    -1.0010     1.3840 nc         1 B0R      -0.257400
     10 N10          1.4320    -0.6400    -0.9710 ns         1 B0R      -0.472100
     11 C11          0.2960    -0.8630    -0.2840 c          1 B0R       0.697700
     12 C12         -0.9490    -0.8570    -1.1200 ca         1 B0R      -0.239600
     13 O13          0.2510    -1.0640     0.9140 o          1 B0R      -0.553100
     14 C14         -1.9620     0.0540    -0.8750 ca         1 B0R       0.172900
     15 C15         -3.1600     0.0510    -1.5750 ca         1 B0R       0.042600
     16 C16         -3.3450    -0.9240    -2.5490 ca         1 B0R      -0.027000
     17 C17         -2.3690    -1.8720    -2.8040 ca         1 B0R      -0.182000
     18 C18         -1.1900    -1.8180    -2.0890 ca         1 B0R       0.192900
     19 F19         -0.2450    -2.7310    -2.3210 f          1 B0R      -0.122900
     20 F20         -1.7660     0.9880     0.0580 f          1 B0R      -0.124900
     21 N21         -4.1580     1.0150    -1.3250 nu         1 B0R      -0.689500
     22 S22         -5.4860     0.6030    -0.4030 s6         1 B0R       1.209900
     23 C23         -4.9050     0.4390     1.2810 c3         1 B0R      -0.224600
     24 C24         -6.0270     0.0130     2.2190 c3         1 B0R      -0.044400
     25 C25         -5.5150    -0.1150     3.6470 c3         1 B0R      -0.085100
     26 O26         -6.3870     1.7400    -0.4810 o          1 B0R      -0.593300
     27 O27         -5.9250    -0.7030    -0.8650 o          1 B0R      -0.593300
     28 O28          6.0930     2.2880     0.1370 os         1 B0R      -0.279900
     29 C29          7.3290     2.9040     0.4930 c3         1 B0R       0.112700
     30 H4           2.4760    -2.7550     0.1930 h4         1 B0R       0.031100
     31 H6           3.2240     1.3510    -0.8080 ha         1 B0R       0.145000
     32 HN10         1.3730    -0.3830    -1.9460 hn         1 B0R       0.328500
     33 H16         -4.2630    -0.9320    -3.1180 ha         1 B0R       0.171000
     34 H17         -2.5180    -2.6360    -3.5540 ha         1 B0R       0.168000
     35 HN21        -3.8440     1.9660    -1.1670 hn         1 B0R       0.445800
     36 H23         -4.1000    -0.2990     1.2690 h1         1 B0R       0.097700
     37 H23A        -4.4870     1.4060     1.5640 h1         1 B0R       0.097700
     38 H24         -6.8370     0.7430     2.1820 hc         1 B0R       0.056700
     39 H24A        -6.4370    -0.9430     1.8890 hc         1 B0R       0.056700
     40 H25         -6.3180    -0.4310     4.3120 hc         1 B0R       0.038033
     41 H25A        -4.7140    -0.8520     3.7200 hc         1 B0R       0.038033
     42 H25B        -5.1300     0.8360     4.0180 hc         1 B0R       0.038033
     43 H29          8.1740     2.3920     0.0300 h1         1 B0R       0.053367
     44 H29A         7.2820     3.9220     0.1180 h1         1 B0R       0.053367
     45 H29B         7.4610     2.9300     1.5770 h1         1 B0R       0.053367
     46 HN8          7.6780     0.5020     1.4860 hn         1 B0R       0.323700
@<TRIPOS>BOND
     1     1     2 ar  
     2     1     6 ar  
     3     1     7 2   
     4     2     3 ar  
     5     2     9 2   
     6     3     4 ar  
     7     4     5 ar  
     8     4    30 1   
     9     5     6 ar  
    10     5    10 1   
    11     6    31 1   
    12     7     8 1   
    13     7    28 1   
    14     8     9 1   
    15     8    46 1   
    16    10    11 1   
    17    10    32 1   
    18    11    12 1   
    19    11    13 2   
    20    12    14 ar  
    21    12    18 ar  
    22    14    15 ar  
    23    14    20 1   
    24    15    16 ar  
    25    15    21 1   
    26    16    17 ar  
    27    16    33 1   
    28    17    18 ar  
    29    17    34 1   
    30    18    19 1   
    31    21    22 1   
    32    21    35 1   
    33    22    23 1   
    34    22    26 2   
    35    22    27 2   
    36    23    24 1   
    37    23    36 1   
    38    23    37 1   
    39    24    25 1   
    40    24    38 1   
    41    24    39 1   
    42    25    40 1   
    43    25    41 1   
    44    25    42 1   
    45    28    29 1   
    46    29    43 1   
    47    29    44 1   
    48    29    45 1   
@<TRIPOS>SUBSTRUCTURE
     1 B0R         1 TEMP              0 ****  ****    0 ROOT
