@<TRIPOS>MOLECULE
B0T
   65    67     1     0     0
SMALL
No Charge or Current Charge


@<TRIPOS>ATOM
      1 C1          -6.9430     1.2010    -1.6410 ca         1 B0T      -0.133000
      2 C2          -6.7340     2.5350    -1.2670 ca         1 B0T      -0.117000
      3 C3          -6.1250     0.1890    -1.1160 ca         1 B0T      -0.104000
      4 C4          -5.6970     2.8580    -0.3770 ca         1 B0T      -0.126000
      5 C5           0.9470     2.4110     0.1610 ca         1 B0T      -0.135000
      6 C6           2.1990     1.9140    -0.2290 ca         1 B0T      -0.152000
      7 C7          -5.0930     0.4980    -0.2010 ca         1 B0T      -0.112600
      8 C8           0.6010     0.4690     1.6100 ca         1 B0T      -0.091600
      9 C9          -4.8670     1.8520     0.1610 ca         1 B0T      -0.024300
     10 C10          0.1260     1.6930     1.0580 ca         1 B0T      -0.090300
     11 C11          2.6570     0.6960     0.2850 ca         1 B0T       0.060100
     12 C12          1.8720    -0.0170     1.2270 ca         1 B0T       0.054100
     13 C13         -4.2410    -0.6130     0.3580 c          1 B0T       0.623700
     14 C15          7.6900    -1.4870    -1.6500 c          1 B0T       0.715000
     15 C17         -1.7950    -2.7340    -1.3810 c3         1 B0T      -0.072400
     16 C18         -2.8940    -2.6400    -0.2940 c3         1 B0T       0.097700
     17 C19         -3.6850    -3.9550    -0.1440 c3         1 B0T      -0.098100
     18 C20          3.7620    -1.4770     1.6230 c6         1 B0T       0.114600
     19 C21          4.1970    -1.1610     0.1730 c6         1 B0T       0.128300
     20 C22         -3.6840     2.2680     1.0470 c3         1 B0T       0.202100
     21 C23         -1.2470     2.2750     1.4250 c3         1 B0T       0.220100
     22 C24         -2.1380     2.3800    -0.8900 c3         1 B0T       0.147100
     23 C26          5.7190    -1.3800    -0.0630 c3         1 B0T      -0.049400
     24 N1          -3.8090    -1.5310    -0.5750 ns         1 B0T      -0.490900
     25 N2          -2.3490     1.9010     0.4980 n3         1 B0T      -0.687600
     26 O1          -0.2960     0.1770     3.7590 o          1 B0T      -0.718500
     27 O2           8.0180    -2.6390    -1.8900 o          1 B0T      -0.752000
     28 O3          -4.0180    -0.7430     1.5540 o          1 B0T      -0.565100
     29 O4          -0.6410    -1.3990     2.3290 o          1 B0T      -0.718500
     30 O5           8.4890    -0.5850    -1.4510 o          1 B0T      -0.752000
     31 O6           2.3580    -1.1870     1.7850 os         1 B0T      -0.301100
     32 O7           3.8840     0.2160    -0.1270 os         1 B0T      -0.339100
     33 H1          -7.7420     0.9500    -2.3350 ha         1 B0T       0.097000
     34 H2          -7.3650     3.3210    -1.6750 ha         1 B0T       0.096000
     35 H3          -6.3100    -0.8440    -1.4050 ha         1 B0T       0.110000
     36 H4          -5.5280     3.9010    -0.1160 ha         1 B0T       0.104000
     37 H5           0.6020     3.3580    -0.2490 ha         1 B0T       0.080000
     38 H6           2.8100     2.4690    -0.9360 ha         1 B0T       0.106000
     39 H7          -0.1470    -1.6080    -2.2680 hc         1 B0T       0.045700
     40 H8          -1.5390    -0.6000    -1.8270 hc         1 B0T       0.045700
     41 H9          -0.4490    -1.2140    -0.5650 hc         1 B0T       0.045700
     42 H10         -2.2570    -2.9560    -2.3500 hc         1 B0T       0.020700
     43 H11         -1.1330    -3.5770    -1.1460 hc         1 B0T       0.020700
     44 H12         -2.3900    -2.4450     0.6650 h1         1 B0T       0.149700
     45 H13         -4.2100    -4.2040    -1.0740 hc         1 B0T       0.026033
     46 H14         -3.0120    -4.7830     0.1050 hc         1 B0T       0.026033
     47 H15         -4.4280    -3.8670     0.6580 hc         1 B0T       0.026033
     48 H16          3.9420    -2.5340     1.8630 h1         1 B0T       0.052200
     49 H17          4.3370    -0.8580     2.3260 h1         1 B0T       0.052200
     50 H18          3.6320    -1.8070    -0.5150 h1         1 B0T       0.045700
     51 H19         -3.7250     3.3550     1.2010 h1         1 B0T       0.043200
     52 H20         -3.8200     1.8140     2.0380 h1         1 B0T       0.043200
     53 H21         -1.5060     1.9670     2.4450 h1         1 B0T       0.045200
     54 H22         -1.1570     3.3700     1.4610 h1         1 B0T       0.045200
     55 H23         -1.2060     1.9810    -1.3070 h1         1 B0T       0.022700
     56 H24         -2.9480     2.0490    -1.5530 h1         1 B0T       0.022700
     57 H25         -2.0940     3.4770    -0.9220 h1         1 B0T       0.022700
     58 H26          6.0040    -0.1150    -1.7600 hc         1 B0T       0.025700
     59 H27          5.6010    -1.8690    -2.1330 hc         1 B0T       0.025700
     60 H28          6.2920    -0.7140     0.5950 hc         1 B0T       0.046200
     61 H29          5.9800    -2.4020     0.2390 hc         1 B0T       0.046200
     62 H30         -4.0620    -1.3470    -1.5380 hn         1 B0T       0.294500
     63 C25          6.1900    -1.1710    -1.5260 c3         1 B0T      -0.202400
     64 C16         -0.9320    -1.4590    -1.5170 c3         1 B0T      -0.097100
     65 C14         -0.1970    -0.3010     2.6350 c          1 B0T       0.734600
@<TRIPOS>BOND
     1     1     2 ar  
     2     1     3 ar  
     3     1    33 1   
     4     2     4 ar  
     5     2    34 1   
     6     3     7 ar  
     7     3    35 1   
     8     4     9 ar  
     9     4    36 1   
    10     5     6 ar  
    11     5    10 ar  
    12     5    37 1   
    13     6    11 ar  
    14     6    38 1   
    15     7     9 ar  
    16     7    13 1   
    17     8    10 ar  
    18     8    12 ar  
    19     8    65 1   
    20     9    20 1   
    21    10    21 1   
    22    11    12 ar  
    23    11    32 1   
    24    12    31 1   
    25    13    24 1   
    26    13    28 2   
    27    14    27 1   
    28    14    30 1   
    29    14    63 1   
    30    15    16 1   
    31    15    42 1   
    32    15    43 1   
    33    15    64 1   
    34    16    17 1   
    35    16    24 1   
    36    16    44 1   
    37    17    45 1   
    38    17    46 1   
    39    17    47 1   
    40    18    19 1   
    41    18    31 1   
    42    18    48 1   
    43    18    49 1   
    44    19    23 1   
    45    19    32 1   
    46    19    50 1   
    47    20    25 1   
    48    20    51 1   
    49    20    52 1   
    50    21    25 1   
    51    21    53 1   
    52    21    54 1   
    53    22    25 1   
    54    22    55 1   
    55    22    56 1   
    56    22    57 1   
    57    23    60 1   
    58    23    61 1   
    59    23    63 1   
    60    24    62 1   
    61    26    65 1   
    62    29    65 1   
    63    39    64 1   
    64    40    64 1   
    65    41    64 1   
    66    58    63 1   
    67    59    63 1   
@<TRIPOS>SUBSTRUCTURE
     1 B0T         1 TEMP              0 ****  ****    0 ROOT
