@<TRIPOS>MOLECULE
B0T
   65    67     1     0     0
SMALL
bcc


@<TRIPOS>ATOM
      1 C1          -7.0220     1.2180    -1.4090 ca         1 B0T      -0.151000
      2 C2          -6.7800     2.5440    -1.0890 ca         1 B0T      -0.135000
      3 C3          -6.1470     0.2370    -0.9610 ca         1 B0T      -0.122000
      4 C4          -5.6650     2.8760    -0.3290 ca         1 B0T      -0.144000
      5 C5           0.9090     2.2820     0.1430 ca         1 B0T      -0.153000
      6 C6           2.1490     1.8150    -0.2490 ca         1 B0T      -0.170000
      7 C7          -5.0420     0.5670    -0.1830 ca         1 B0T      -0.112600
      8 C8           0.5270     0.3060     1.4650 ca         1 B0T      -0.091600
      9 C9          -4.7900     1.9030     0.1420 ca         1 B0T      -0.024300
     10 C10          0.0800     1.5420     0.9850 ca         1 B0T      -0.090300
     11 C11          2.5960     0.5890     0.2180 ca         1 B0T       0.060100
     12 C12          1.7850    -0.1580     1.0750 ca         1 B0T       0.054100
     13 C13         -4.1880    -0.5420     0.3560 c          1 B0T       0.690700
     14 C15          7.7430    -1.2480    -1.4730 c          1 B0T       0.925600
     15 C17         -1.8130    -2.6840    -1.4330 c3         1 B0T      -0.072400
     16 C18         -2.8240    -2.4870    -0.3060 c3         1 B0T       0.097700
     17 C19         -3.7020    -3.7180    -0.1120 c3         1 B0T      -0.098100
     18 C20          3.6270    -1.5240     1.5030 c6         1 B0T       0.091400
     19 C21          4.1460    -1.1860     0.1210 c6         1 B0T       0.105100
     20 C22         -3.5880     2.3090     0.9520 c3         1 B0T       0.202100
     21 C23         -1.2640     2.1190     1.3490 c3         1 B0T       0.220100
     22 C24         -2.0960     2.1830    -0.9200 c3         1 B0T       0.147100
     23 C26          5.6480    -1.3640     0.0270 c3         1 B0T      -0.049400
     24 N1          -3.6340    -1.3150    -0.5860 ns         1 B0T      -0.557900
     25 N2          -2.3480     1.7630     0.4380 n3         1 B0T      -0.687600
     26 O1          -0.4670     0.0380     3.5750 o          1 B0T      -0.823800
     27 O2           8.3060    -1.9200    -0.5860 o          1 B0T      -0.857300
     28 O3          -4.0970    -0.7430     1.5580 o          1 B0T      -0.565100
     29 O4          -0.5630    -1.6840     2.1610 o          1 B0T      -0.823800
     30 O5           8.2840    -0.7760    -2.4930 o          1 B0T      -0.857300
     31 O6           2.2280    -1.3390     1.5840 os         1 B0T      -0.277900
     32 O7           3.8250     0.1700    -0.1680 os         1 B0T      -0.315900
     33 H1          -7.8850     0.9440    -2.0020 ha         1 B0T       0.115000
     34 H2          -7.4490     3.3210    -1.4350 ha         1 B0T       0.114000
     35 H3          -6.3410    -0.8010    -1.2050 ha         1 B0T       0.128000
     36 H4          -5.4660     3.9170    -0.1030 ha         1 B0T       0.122000
     37 H5           0.5740     3.2480    -0.2150 ha         1 B0T       0.098000
     38 H6           2.7840     2.3980    -0.9050 ha         1 B0T       0.124000
     39 H7          -0.0750    -1.7570    -2.3410 hc         1 B0T       0.045700
     40 H8          -1.2650    -0.6010    -1.7500 hc         1 B0T       0.045700
     41 H9          -0.2450    -1.4470    -0.6070 hc         1 B0T       0.045700
     42 H10         -2.3450    -2.8130    -2.3840 hc         1 B0T       0.020700
     43 H11         -1.2960    -3.6300    -1.2540 hc         1 B0T       0.020700
     44 H12         -2.2730    -2.2810     0.6140 h1         1 B0T       0.149700
     45 H13         -4.2610    -3.9520    -1.0200 hc         1 B0T       0.026033
     46 H14         -3.0950    -4.5890     0.1410 hc         1 B0T       0.026033
     47 H15         -4.4150    -3.5620     0.6970 hc         1 B0T       0.026033
     48 H16          3.8260    -2.5710     1.7310 h1         1 B0T       0.052200
     49 H17          4.1390    -0.9070     2.2550 h1         1 B0T       0.052200
     50 H18          3.6510    -1.8360    -0.6150 h1         1 B0T       0.045700
     51 H19         -3.5620     3.4120     1.0010 h1         1 B0T       0.043200
     52 H20         -3.7080     1.9580     1.9800 h1         1 B0T       0.043200
     53 H21         -1.5470     1.7840     2.3460 h1         1 B0T       0.045200
     54 H22         -1.1590     3.2170     1.4000 h1         1 B0T       0.045200
     55 H23         -1.1970     1.6980    -1.2940 h1         1 B0T       0.022700
     56 H24         -2.9210     1.8890    -1.5670 h1         1 B0T       0.022700
     57 H25         -1.9590     3.2740    -1.0220 h1         1 B0T       0.022700
     58 H26          6.0550     0.0800    -1.5280 hc         1 B0T       0.025700
     59 H27          5.7140    -1.5190    -2.1240 hc         1 B0T       0.025700
     60 H28          6.1280    -0.7880     0.8230 hc         1 B0T       0.046200
     61 H29          5.8650    -2.4140     0.2330 hc         1 B0T       0.046200
     62 H30         -3.7810    -1.0590    -1.5490 hn         1 B0T       0.294500
     63 C25          6.2340    -0.9780    -1.3240 c3         1 B0T      -0.202400
     64 C16         -0.7920    -1.5600    -1.5420 c3         1 B0T      -0.097100
     65 C14         -0.2550    -0.5250     2.4810 c          1 B0T       0.945200
@<TRIPOS>BOND
     1     1     2 ar  
     2     1     3 ar  
     3     1    33 1   
     4     2     4 ar  
     5     2    34 1   
     6     3     7 ar  
     7     3    35 1   
     8     4     9 ar  
     9     4    36 1   
    10     5     6 ar  
    11     5    10 ar  
    12     5    37 1   
    13     6    11 ar  
    14     6    38 1   
    15     7     9 ar  
    16     7    13 1   
    17     8    10 ar  
    18     8    12 ar  
    19     8    65 1   
    20     9    20 1   
    21    10    21 1   
    22    11    12 ar  
    23    11    32 1   
    24    12    31 1   
    25    13    24 1   
    26    13    28 2   
    27    14    27 1   
    28    14    30 1   
    29    14    63 1   
    30    15    16 1   
    31    15    42 1   
    32    15    43 1   
    33    15    64 1   
    34    16    17 1   
    35    16    24 1   
    36    16    44 1   
    37    17    45 1   
    38    17    46 1   
    39    17    47 1   
    40    18    19 1   
    41    18    31 1   
    42    18    48 1   
    43    18    49 1   
    44    19    23 1   
    45    19    32 1   
    46    19    50 1   
    47    20    25 1   
    48    20    51 1   
    49    20    52 1   
    50    21    25 1   
    51    21    53 1   
    52    21    54 1   
    53    22    25 1   
    54    22    55 1   
    55    22    56 1   
    56    22    57 1   
    57    23    60 1   
    58    23    61 1   
    59    23    63 1   
    60    24    62 1   
    61    26    65 1   
    62    29    65 1   
    63    39    64 1   
    64    40    64 1   
    65    41    64 1   
    66    58    63 1   
    67    59    63 1   
@<TRIPOS>SUBSTRUCTURE
     1 B0T         1 TEMP              0 ****  ****    0 ROOT
