@<TRIPOS>MOLECULE
B0U
   33    32     1     0     0
SMALL
No Charge or Current Charge


@<TRIPOS>ATOM
      1 C6           0.9580     1.4210     1.1610 c3         1 B0U       0.170600
      2 C5          -0.2730     2.1370     0.5510 c3         1 B0U       0.159600
      3 C4          -2.2900     1.7130    -0.7220 c3         1 B0U       0.162600
      4 C7           3.0310     0.3360     0.5450 c3         1 B0U       0.171600
      5 C8           3.8590    -0.0170    -0.6990 c3         1 B0U      -0.211400
      6 C9           5.1270    -0.7420    -0.2450 c          1 B0U       0.720000
      7 O10          5.0850    -1.9570    -0.1260 o          1 B0U      -0.741000
      8 C3          -3.1000     0.5670    -1.3750 c3         1 B0U       0.164600
      9 C2          -4.4960    -1.3380    -0.8280 c3         1 B0U       0.161600
     10 C1          -5.0980    -2.0980     0.3870 c3         1 B0U       0.151800
     11 OO5          6.1110    -0.0700     0.0230 o          1 B0U      -0.741000
     12 O4           1.8480     1.0170     0.1000 os         1 B0U      -0.468000
     13 O3          -1.1110     1.1640    -0.1020 os         1 B0U      -0.424000
     14 O2          -3.7180    -0.2250    -0.3410 os         1 B0U      -0.450000
     15 N1          -6.0020    -1.2620     1.2190 n8         1 B0U      -1.001200
     16 H1           1.4700     2.1160     1.8390 h1         1 B0U       0.018200
     17 H2           0.6260     0.5540     1.7480 h1         1 B0U       0.018200
     18 H3          -0.8290     2.6330     1.3580 h1         1 B0U       0.014700
     19 H4           0.0620     2.9070    -0.1560 h1         1 B0U       0.014700
     20 H5          -2.0060     2.4340    -1.5000 h1         1 B0U       0.019700
     21 H6          -2.9160     2.2340     0.0140 h1         1 B0U       0.019700
     22 H7           2.7680    -0.5820     1.0880 h1         1 B0U       0.022700
     23 H8           3.6200     0.9790     1.2130 h1         1 B0U       0.022700
     24 H9           3.2300    -0.6780    -1.3070 hc         1 B0U       0.029700
     25 H10          4.1080     0.9370    -1.1800 hc         1 B0U       0.029700
     26 H12         -3.8670     1.0050    -2.0280 h1         1 B0U       0.026700
     27 H13         -2.4330    -0.0450    -1.9970 h1         1 B0U       0.026700
     28 H14         -3.8630    -2.0270    -1.4040 h1         1 B0U       0.024700
     29 H15         -5.3060    -0.9910    -1.4820 h1         1 B0U       0.024700
     30 H16         -5.6570    -2.9740     0.0290 h1         1 B0U       0.034200
     31 H17         -4.2740    -2.4570     1.0190 h1         1 B0U       0.034200
     32 H18         -6.1930    -1.7520     2.1010 hn         1 B0U       0.396500
     33 H19         -5.4760    -0.4290     1.5100 hn         1 B0U       0.396500
@<TRIPOS>BOND
     1     1     2 1   
     2     1    12 1   
     3     1    16 1   
     4     1    17 1   
     5     2    13 1   
     6     2    18 1   
     7     2    19 1   
     8     3     8 1   
     9     3    13 1   
    10     3    20 1   
    11     3    21 1   
    12     4     5 1   
    13     4    12 1   
    14     4    22 1   
    15     4    23 1   
    16     5     6 1   
    17     5    24 1   
    18     5    25 1   
    19     6     7 1   
    20     6    11 1   
    21     8    14 1   
    22     8    26 1   
    23     8    27 1   
    24     9    10 1   
    25     9    14 1   
    26     9    28 1   
    27     9    29 1   
    28    10    15 1   
    29    10    30 1   
    30    10    31 1   
    31    15    32 1   
    32    15    33 1   
@<TRIPOS>SUBSTRUCTURE
     1 B0U         1 TEMP              0 ****  ****    0 ROOT
