@<TRIPOS>MOLECULE
B0U
   33    32     1     0     0
SMALL
abcg2


@<TRIPOS>ATOM
      1 C6           0.9580     1.5560     1.0710 c3         1 B0U       0.170600
      2 C5          -0.2850     2.1600     0.4710 c3         1 B0U       0.159600
      3 C4          -2.2540     1.6610    -0.6830 c3         1 B0U       0.162600
      4 C7           2.9430     0.4230     0.5500 c3         1 B0U       0.171600
      5 C8           3.6840    -0.2330    -0.5950 c3         1 B0U      -0.211400
      6 C9           5.0480    -0.8340    -0.2110 c          1 B0U       0.720000
      7 O10          5.6760    -1.3920    -1.1340 o          1 B0U      -0.741000
      8 C3          -3.0560     0.5400    -1.2930 c3         1 B0U       0.164600
      9 C2          -4.4100    -1.3030    -0.7740 c3         1 B0U       0.161600
     10 C1          -4.9930    -2.0710     0.3900 c3         1 B0U       0.151800
     11 OO5          5.4160    -0.7200     0.9750 o          1 B0U      -0.741000
     12 O4           1.7240     0.9480     0.0670 os         1 B0U      -0.468000
     13 O3          -1.1030     1.1490    -0.0620 os         1 B0U      -0.424000
     14 O2          -3.5570    -0.2970    -0.2830 os         1 B0U      -0.450000
     15 N1          -5.8350    -1.2200     1.2160 n8         1 B0U      -1.001200
     16 H1           1.5180     2.3630     1.5660 h1         1 B0U       0.018200
     17 H2           0.6880     0.8350     1.8560 h1         1 B0U       0.018200
     18 H3          -0.8100     2.7200     1.2580 h1         1 B0U       0.014700
     19 H4          -0.0100     2.8890    -0.3050 h1         1 B0U       0.014700
     20 H5          -1.9880     2.3620    -1.4870 h1         1 B0U       0.019700
     21 H6          -2.8760     2.2190     0.0320 h1         1 B0U       0.019700
     22 H7           2.7550    -0.3060     1.3500 h1         1 B0U       0.022700
     23 H8           3.5520     1.2230     0.9930 h1         1 B0U       0.022700
     24 H9           3.0650    -1.0260    -1.0280 hc         1 B0U       0.029700
     25 H10          3.8370     0.4950    -1.3980 hc         1 B0U       0.029700
     26 H12         -3.8730     0.9880    -1.8750 h1         1 B0U       0.026700
     27 H13         -2.4340    -0.0250    -2.0030 h1         1 B0U       0.026700
     28 H14         -3.8650    -1.9930    -1.4330 h1         1 B0U       0.024700
     29 H15         -5.2240    -0.8620    -1.3680 h1         1 B0U       0.024700
     30 H16         -5.6070    -2.8740    -0.0250 h1         1 B0U       0.034200
     31 H17         -4.1760    -2.5600     0.9400 h1         1 B0U       0.034200
     32 H18         -6.2520    -1.7740     1.9530 hn         1 B0U       0.396500
     33 H19         -5.2580    -0.5330     1.6840 hn         1 B0U       0.396500
@<TRIPOS>BOND
     1     1     2 1   
     2     1    12 1   
     3     1    16 1   
     4     1    17 1   
     5     2    13 1   
     6     2    18 1   
     7     2    19 1   
     8     3     8 1   
     9     3    13 1   
    10     3    20 1   
    11     3    21 1   
    12     4     5 1   
    13     4    12 1   
    14     4    22 1   
    15     4    23 1   
    16     5     6 1   
    17     5    24 1   
    18     5    25 1   
    19     6     7 1   
    20     6    11 1   
    21     8    14 1   
    22     8    26 1   
    23     8    27 1   
    24     9    10 1   
    25     9    14 1   
    26     9    28 1   
    27     9    29 1   
    28    10    15 1   
    29    10    30 1   
    30    10    31 1   
    31    15    32 1   
    32    15    33 1   
@<TRIPOS>SUBSTRUCTURE
     1 B0U         1 TEMP              0 ****  ****    0 ROOT
