@<TRIPOS>MOLECULE
B0V
   32    32     1     0     0
SMALL
No Charge or Current Charge


@<TRIPOS>ATOM
      1 N1          -0.7310    -0.3510    -0.4090 ns         1 B0V      -0.179000
      2 C4           1.4850    -1.2940    -0.0360 ca         1 B0V      -0.062800
      3 C5           0.6640    -0.1560    -0.2220 ca         1 B0V      -0.052000
      4 C6           1.2500     1.1360    -0.2520 ca         1 B0V      -0.062800
      5 C7           2.6380     1.2710    -0.0540 ca         1 B0V      -0.110000
      6 C8           0.4380     2.3990    -0.5350 c3         1 B0V      -0.046300
      7 C10         -3.1860    -0.2440    -0.2850 c3         1 B0V       0.072600
      8 C2           3.4510     0.1450     0.1520 ca         1 B0V      -0.066300
      9 C3           2.8700    -1.1340     0.1560 ca         1 B0V      -0.110000
     10 C9          -1.8080     0.1820     0.2840 c          1 B0V       0.601100
     11 O1          -1.6760     0.9060     1.2680 o          1 B0V      -0.550100
     12 O2          -4.3000     0.3030     0.4600 os         1 B0V      -0.414000
     13 C11         -5.5950    -0.0700    -0.0390 c3         1 B0V       0.140900
     14 C12          0.8880    -2.6990    -0.0210 c3         1 B0V      -0.046300
     15 H1          -0.9730    -0.9870    -1.1590 hn         1 B0V       0.150000
     16 H2           3.0910     2.2600    -0.0700 ha         1 B0V       0.112500
     17 H3           0.0200     2.8150     0.3880 hc         1 B0V       0.044367
     18 H4           1.0610     3.1790    -0.9900 hc         1 B0V       0.044367
     19 H5          -0.3870     2.2100    -1.2320 hc         1 B0V       0.044367
     20 H6          -3.2260     0.0840    -1.3320 h1         1 B0V       0.033200
     21 H7          -3.2210    -1.3410    -0.2790 h1         1 B0V       0.033200
     22 H8           5.1800     0.4280     1.4290 hc         1 B0V       0.042367
     23 H9           5.5020    -0.5650    -0.0020 hc         1 B0V       0.042367
     24 H10          5.3340     1.1870    -0.1640 hc         1 B0V       0.042367
     25 H11          3.5000    -2.0070     0.3110 ha         1 B0V       0.112500
     26 H12         -5.7280     0.2730    -1.0740 h1         1 B0V       0.031700
     27 H13         -5.7230    -1.1600    -0.0150 h1         1 B0V       0.031700
     28 H14         -6.3850     0.3810     0.5740 h1         1 B0V       0.031700
     29 H15          0.4060    -2.9330    -0.9770 hc         1 B0V       0.044367
     30 H16          1.6520    -3.4660     0.1570 hc         1 B0V       0.044367
     31 H17          0.1350    -2.7990     0.7700 hc         1 B0V       0.044367
     32 C1           4.9480     0.3080     0.3650 c3         1 B0V      -0.046800
@<TRIPOS>BOND
     1     1     3 1   
     2     1    10 1   
     3     1    15 1   
     4     2     3 ar  
     5     2     9 ar  
     6     2    14 1   
     7     3     4 ar  
     8     4     5 ar  
     9     4     6 1   
    10     5     8 ar  
    11     5    16 1   
    12     6    17 1   
    13     6    18 1   
    14     6    19 1   
    15     7    10 1   
    16     7    12 1   
    17     7    20 1   
    18     7    21 1   
    19     8     9 ar  
    20     8    32 1   
    21     9    25 1   
    22    10    11 2   
    23    12    13 1   
    24    13    26 1   
    25    13    27 1   
    26    13    28 1   
    27    14    29 1   
    28    14    30 1   
    29    14    31 1   
    30    22    32 1   
    31    23    32 1   
    32    24    32 1   
@<TRIPOS>SUBSTRUCTURE
     1 B0V         1 TEMP              0 ****  ****    0 ROOT
