@<TRIPOS>MOLECULE
B0V
   32    32     1     0     0
SMALL
abcg2


@<TRIPOS>ATOM
      1 N1          -0.7250    -0.2930    -0.6460 ns         1 B0V      -0.179000
      2 C4           1.4150    -1.2670    -0.0710 ca         1 B0V      -0.062800
      3 C5           0.6510    -0.1320    -0.3520 ca         1 B0V      -0.052000
      4 C6           1.2280     1.1400    -0.3720 ca         1 B0V      -0.062800
      5 C7           2.5840     1.2540    -0.0830 ca         1 B0V      -0.110000
      6 C8           0.4260     2.3640    -0.7000 c3         1 B0V      -0.046300
      7 C10         -3.1020    -0.2460    -0.3310 c3         1 B0V       0.072600
      8 C2           3.3700     0.1460     0.2100 ca         1 B0V      -0.066300
      9 C3           2.7700    -1.1090     0.2020 ca         1 B0V      -0.110000
     10 C9          -1.7140     0.0770     0.1960 c          1 B0V       0.601100
     11 O1          -1.5230     0.6130     1.2690 o          1 B0V      -0.550100
     12 O2          -4.0510     0.1950     0.5850 os         1 B0V      -0.414000
     13 C11         -5.3630    -0.1040     0.1750 c3         1 B0V       0.140900
     14 C12          0.7900    -2.6310    -0.0660 c3         1 B0V      -0.046300
     15 H1          -0.9770    -0.7870    -1.4900 hn         1 B0V       0.150000
     16 H2           3.0390     2.2390    -0.0990 ha         1 B0V       0.112500
     17 H3          -0.1050     2.7330     0.1790 hc         1 B0V       0.044367
     18 H4           1.0720     3.1660    -1.0530 hc         1 B0V       0.044367
     19 H5          -0.3220     2.1670    -1.4680 hc         1 B0V       0.044367
     20 H6          -3.2290     0.2260    -1.3170 h1         1 B0V       0.033200
     21 H7          -3.1710    -1.3320    -0.5000 h1         1 B0V       0.033200
     22 H8           4.9610     0.5360     1.6020 hc         1 B0V       0.042367
     23 H9           5.3870    -0.6060     0.3360 hc         1 B0V       0.042367
     24 H10          5.2780     1.1170    -0.0240 hc         1 B0V       0.042367
     25 H11          3.3680    -1.9880     0.4150 ha         1 B0V       0.112500
     26 H12         -5.6220     0.3890    -0.7690 h1         1 B0V       0.031700
     27 H13         -5.5160    -1.1820     0.0460 h1         1 B0V       0.031700
     28 H14         -6.0430     0.2520     0.9470 h1         1 B0V       0.031700
     29 H15          0.4220    -2.9130    -1.0540 hc         1 B0V       0.044367
     30 H16          1.5100    -3.3870     0.2420 hc         1 B0V       0.044367
     31 H17         -0.0600    -2.6820     0.6160 hc         1 B0V       0.044367
     32 C1           4.8250     0.3040     0.5430 c3         1 B0V      -0.046800
@<TRIPOS>BOND
     1     1     3 1   
     2     1    10 1   
     3     1    15 1   
     4     2     3 ar  
     5     2     9 ar  
     6     2    14 1   
     7     3     4 ar  
     8     4     5 ar  
     9     4     6 1   
    10     5     8 ar  
    11     5    16 1   
    12     6    17 1   
    13     6    18 1   
    14     6    19 1   
    15     7    10 1   
    16     7    12 1   
    17     7    20 1   
    18     7    21 1   
    19     8     9 ar  
    20     8    32 1   
    21     9    25 1   
    22    10    11 2   
    23    12    13 1   
    24    13    26 1   
    25    13    27 1   
    26    13    28 1   
    27    14    29 1   
    28    14    30 1   
    29    14    31 1   
    30    22    32 1   
    31    23    32 1   
    32    24    32 1   
@<TRIPOS>SUBSTRUCTURE
     1 B0V         1 TEMP              0 ****  ****    0 ROOT
