@<TRIPOS>MOLECULE
B0W
   41    43     1     0     0
SMALL
No Charge or Current Charge


@<TRIPOS>ATOM
      1 C11         -2.7290     0.9960    -0.0510 ca         1 B0W      -0.108000
      2 C10         -3.9910     1.5890    -0.2240 ca         1 B0W      -0.096000
      3 C9          -5.1550     0.7970    -0.3480 ca         1 B0W      -0.108600
      4 C12         -6.5220     1.4400    -0.5360 c          1 B0W       0.711600
      5 O13         -6.5960     2.6610    -0.5760 o          1 B0W      -0.714500
      6 O14         -7.5020     0.7150    -0.6390 o          1 B0W      -0.714500
      7 C8          -5.0150    -0.6080    -0.2940 ca         1 B0W      -0.096000
      8 C7          -3.7530    -1.2010    -0.1210 ca         1 B0W      -0.108000
      9 C6          -2.5910    -0.4080     0.0030 ca         1 B0W      -0.185500
     10 C4          -1.2730    -1.0360     0.1840 cc         1 B0W       0.492000
     11 N5          -0.0960    -0.3600     0.3130 na         1 B0W      -0.485000
     12 N3          -1.0190    -2.3330     0.2470 nd         1 B0W      -0.385000
     13 N2           0.3350    -2.4950     0.4220 nd         1 B0W      -0.352000
     14 C1           0.8950    -1.2940     0.4610 cc         1 B0W       0.360800
     15 C15          2.3720    -0.9690     0.6280 c6         1 B0W       0.158000
     16 O5           2.5770     0.4670     0.7350 os         1 B0W      -0.412000
     17 C5           3.9510     0.8750     0.9650 c6         1 B0W       0.169300
     18 C13          3.9750     2.4260     1.1690 c3         1 B0W       0.173600
     19 O6           3.1030     2.8770     2.2260 oh         1 B0W      -0.706000
     20 C14          4.8350     0.4180    -0.2350 c6         1 B0W       0.142300
     21 O4           6.2230     0.7500    -0.0550 oh         1 B0W      -0.722000
     22 C3           4.6960    -1.1200    -0.4110 c6         1 B0W       0.099300
     23 O3           5.4680    -1.5760    -1.5360 oh         1 B0W      -0.671000
     24 C2           3.2020    -1.5250    -0.5800 c6         1 B0W       0.115300
     25 O2           3.1160    -2.9650    -0.7010 oh         1 B0W      -0.713000
     26 H1          -1.8590     1.6430     0.0410 ha         1 B0W       0.096000
     27 H2          -4.0610     2.6750    -0.2610 ha         1 B0W       0.132000
     28 H4          -5.8890    -1.2500    -0.3860 ha         1 B0W       0.132000
     29 H5          -3.6840    -2.2860    -0.0840 ha         1 B0W       0.096000
     30 H6           0.0270     0.6400     0.3090 hn         1 B0W       0.361000
     31 H7           2.7370    -1.4330     1.5560 h1         1 B0W       0.044700
     32 H8           4.3110     0.4010     1.8900 h1         1 B0W       0.056700
     33 H9           5.0090     2.7280     1.3850 h1         1 B0W       0.033700
     34 H10          3.6900     2.8990     0.2190 h1         1 B0W       0.033700
     35 H11          3.1550     3.8610     2.2410 ho         1 B0W       0.501000
     36 H12          4.4520     0.9050    -1.1450 h1         1 B0W       0.057700
     37 H13          6.7020     0.1290    -0.6570 ho         1 B0W       0.519000
     38 H14          5.0690    -1.6010     0.5060 h1         1 B0W       0.050700
     39 H15          5.0990    -2.4660    -1.7470 ho         1 B0W       0.452000
     40 H16          2.8160    -1.0490    -1.4950 h1         1 B0W       0.080700
     41 H17          2.1600    -3.2110    -0.6450 ho         1 B0W       0.512000
@<TRIPOS>BOND
     1     1     2 ar  
     2     1     9 ar  
     3     1    26 1   
     4     2     3 ar  
     5     2    27 1   
     6     3     4 1   
     7     3     7 ar  
     8     4     5 1   
     9     4     6 1   
    10     7     8 ar  
    11     7    28 1   
    12     8     9 ar  
    13     8    29 1   
    14     9    10 1   
    15    10    11 1   
    16    10    12 2   
    17    11    14 1   
    18    11    30 1   
    19    12    13 1   
    20    13    14 2   
    21    14    15 1   
    22    15    16 1   
    23    15    24 1   
    24    15    31 1   
    25    16    17 1   
    26    17    18 1   
    27    17    20 1   
    28    17    32 1   
    29    18    19 1   
    30    18    33 1   
    31    18    34 1   
    32    19    35 1   
    33    20    21 1   
    34    20    22 1   
    35    20    36 1   
    36    21    37 1   
    37    22    23 1   
    38    22    24 1   
    39    22    38 1   
    40    23    39 1   
    41    24    25 1   
    42    24    40 1   
    43    25    41 1   
@<TRIPOS>SUBSTRUCTURE
     1 B0W         1 TEMP              0 ****  ****    0 ROOT
