@<TRIPOS>MOLECULE
B0W
   41    43     1     0     0
SMALL
abcg2


@<TRIPOS>ATOM
      1 C11         -3.1710     0.1960     0.9980 ca         1 B0W      -0.108000
      2 C10         -4.5310     0.2940     1.2460 ca         1 B0W      -0.096000
      3 C9          -5.4600     0.1550     0.2200 ca         1 B0W      -0.108600
      4 C12         -6.9550     0.2700     0.4960 c          1 B0W       0.711600
      5 O13         -7.2850     0.5180     1.6710 o          1 B0W      -0.714500
      6 O14         -7.7130     0.1090    -0.4790 o          1 B0W      -0.714500
      7 C8          -4.9870    -0.0880    -1.0690 ca         1 B0W      -0.096000
      8 C7          -3.6320    -0.1840    -1.3270 ca         1 B0W      -0.108000
      9 C6          -2.7050    -0.0430    -0.2940 ca         1 B0W      -0.185500
     10 C4          -1.2800    -0.1420    -0.5880 cc         1 B0W       0.492000
     11 N5          -0.2840    -0.0630     0.3260 na         1 B0W      -0.485000
     12 N3          -0.7500    -0.3190    -1.7720 nd         1 B0W      -0.385000
     13 N2           0.5920    -0.3580    -1.6320 nd         1 B0W      -0.352000
     14 C1           0.8650    -0.2020    -0.3670 cc         1 B0W       0.360800
     15 C15          2.2230    -0.1720     0.2460 c6         1 B0W       0.158000
     16 O5           2.9130     0.9300    -0.2900 os         1 B0W      -0.412000
     17 C5           4.1810     1.1380     0.3020 c6         1 B0W       0.169300
     18 C13          4.7590     2.4040    -0.2910 c3         1 B0W       0.173600
     19 O6           3.9330     3.4870     0.0630 oh         1 B0W      -0.706000
     20 C14          5.0770    -0.0770     0.0520 c6         1 B0W       0.142300
     21 O4           6.3000     0.1400     0.7090 oh         1 B0W      -0.722000
     22 C3           4.3860    -1.3370     0.5640 c6         1 B0W       0.099300
     23 O3           5.2030    -2.4370     0.2310 oh         1 B0W      -0.671000
     24 C2           2.9900    -1.4620    -0.0370 c6         1 B0W       0.115300
     25 O2           2.2640    -2.5220     0.5350 oh         1 B0W      -0.713000
     26 H1          -2.4840     0.3110     1.8270 ha         1 B0W       0.096000
     27 H2          -4.8740     0.4830     2.2540 ha         1 B0W       0.132000
     28 H4          -5.6930    -0.2000    -1.8800 ha         1 B0W       0.132000
     29 H5          -3.2860    -0.3720    -2.3360 ha         1 B0W       0.096000
     30 H6          -0.3650     0.0680     1.3230 hn         1 B0W       0.361000
     31 H7           2.1080    -0.0640     1.3360 h1         1 B0W       0.044700
     32 H8           4.0670     1.2700     1.3910 h1         1 B0W       0.056700
     33 H9           5.7790     2.5310     0.0880 h1         1 B0W       0.033700
     34 H10          4.8320     2.2850    -1.3810 h1         1 B0W       0.033700
     35 H11          4.3200     4.2880    -0.3000 ho         1 B0W       0.501000
     36 H12          5.2230    -0.1790    -1.0360 h1         1 B0W       0.057700
     37 H13          6.8570    -0.6320     0.5650 ho         1 B0W       0.519000
     38 H14          4.2820    -1.2470     1.6560 h1         1 B0W       0.050700
     39 H15          5.0060    -3.1640     0.8290 ho         1 B0W       0.452000
     40 H16          3.0750    -1.5780    -1.1250 h1         1 B0W       0.080700
     41 H17          2.4560    -3.3280     0.0480 ho         1 B0W       0.512000
@<TRIPOS>BOND
     1     1     2 ar  
     2     1     9 ar  
     3     1    26 1   
     4     2     3 ar  
     5     2    27 1   
     6     3     4 1   
     7     3     7 ar  
     8     4     5 1   
     9     4     6 1   
    10     7     8 ar  
    11     7    28 1   
    12     8     9 ar  
    13     8    29 1   
    14     9    10 1   
    15    10    11 1   
    16    10    12 2   
    17    11    14 1   
    18    11    30 1   
    19    12    13 1   
    20    13    14 2   
    21    14    15 1   
    22    15    16 1   
    23    15    24 1   
    24    15    31 1   
    25    16    17 1   
    26    17    18 1   
    27    17    20 1   
    28    17    32 1   
    29    18    19 1   
    30    18    33 1   
    31    18    34 1   
    32    19    35 1   
    33    20    21 1   
    34    20    22 1   
    35    20    36 1   
    36    21    37 1   
    37    22    23 1   
    38    22    24 1   
    39    22    38 1   
    40    23    39 1   
    41    24    25 1   
    42    24    40 1   
    43    25    41 1   
@<TRIPOS>SUBSTRUCTURE
     1 B0W         1 TEMP              0 ****  ****    0 ROOT
