@<TRIPOS>MOLECULE
B0X
   50    53     1     0     0
SMALL
bcc


@<TRIPOS>ATOM
      1 C1           4.5990    -0.6110     0.0270 ca         1 B0X       0.085100
      2 C2           5.3160     0.5310     0.3800 ca         1 B0X      -0.128000
      3 C3           6.6570     0.4510     0.7260 ca         1 B0X      -0.105600
      4 C4           7.2850    -0.7950     0.7210 ca         1 B0X      -0.126000
      5 C5           6.5730    -1.9270     0.3660 ca         1 B0X      -0.134000
      6 C6           5.2280    -1.8510     0.0140 ca         1 B0X      -0.238000
      7 C7          -0.8010    -0.6220    -1.5790 ca         1 B0X       0.069400
      8 C8          -0.8390    -0.1860    -0.2470 ca         1 B0X      -0.077200
      9 N9           0.3870    -0.4990     0.2720 na         1 B0X      -0.126300
     10 C10          1.0960    -1.0770    -0.7390 cc         1 B0X       0.435800
     11 N11          0.4250    -1.1720    -1.8530 nd         1 B0X      -0.572100
     12 C12         -3.0450     0.5780    -0.5180 ca         1 B0X       0.092100
     13 C13         -1.9580     0.4190     0.3180 ca         1 B0X      -0.127000
     14 C14         -1.9190    -0.4500    -2.3960 ca         1 B0X      -0.056000
     15 C15         -3.0360     0.1550    -1.8570 ca         1 B0X      -0.178000
     16 C16         -6.6020    -1.4710     0.3990 ca         1 B0X      -0.220300
     17 C17         -7.7260    -0.6760     0.5590 ca         1 B0X       0.388600
     18 N18         -7.6410     0.6550     0.5270 nb         1 B0X      -0.668000
     19 C19         -6.4750     1.2520     0.3310 ca         1 B0X       0.409600
     20 C20         -5.3020     0.5080     0.1540 ca         1 B0X       0.016800
     21 C21         -5.3660    -0.8720     0.1950 ca         1 B0X      -0.157000
     22 O22         -4.1540     1.2170    -0.0190 os         1 B0X      -0.245200
     23 C24          2.4960    -1.5500    -0.5650 c3         1 B0X       0.124100
     24 O25          3.2950    -0.4160    -0.2920 os         1 B0X      -0.330900
     25 C26          7.4280     1.7120     1.1050 c          1 B0X       0.923200
     26 O27          6.8030     2.7870     1.0540 o          1 B0X      -0.820800
     27 O28          8.6200     1.5550     1.4300 o          1 B0X      -0.820800
     28 H1           4.8160     1.4920     0.3810 ha         1 B0X       0.160000
     29 H2           8.3290    -0.8720     0.9910 ha         1 B0X       0.149000
     30 H3           7.0600    -2.8940     0.3580 ha         1 B0X       0.104000
     31 H4           4.7060    -2.7560    -0.2640 ha         1 B0X       0.106000
     32 H5          -1.9890     0.7540     1.3470 ha         1 B0X       0.151000
     33 H6          -1.9090    -0.7720    -3.4290 ha         1 B0X       0.147000
     34 H7          -3.9140     0.3140    -2.4700 ha         1 B0X       0.140000
     35 H8          -6.6820    -2.5490     0.4310 ha         1 B0X       0.137000
     36 H9          -4.4820    -1.4840     0.0740 ha         1 B0X       0.153000
     37 H10          0.0040    -0.3550     2.3090 h1         1 B0X       0.059033
     38 H11          1.6260    -0.8920     1.9050 h1         1 B0X       0.059033
     39 H12          1.1920     0.8120     1.7030 h1         1 B0X       0.059033
     40 H13          2.5580    -2.2800     0.2510 h1         1 B0X       0.053700
     41 H14          2.8040    -2.0530    -1.4850 h1         1 B0X       0.053700
     42 H16         -9.4810    -0.9850     1.7580 hc         1 B0X       0.045033
     43 H17         -9.7940    -0.9030     0.0320 hc         1 B0X       0.045033
     44 H18         -9.0660    -2.3520     0.7250 hc         1 B0X       0.045033
     45 H19         -5.7740     3.1500     1.0730 hc         1 B0X       0.052033
     46 H20         -6.0900     3.1300    -0.6520 hc         1 B0X       0.052033
     47 H21         -7.4400     3.1430     0.4870 hc         1 B0X       0.052033
     48 C29         -9.0870    -1.2650     0.7790 c3         1 B0X      -0.134400
     49 C23          0.8310    -0.2120     1.6160 c3         1 B0X       0.036600
     50 C30         -6.4420     2.7500     0.3080 c3         1 B0X      -0.135400
@<TRIPOS>BOND
     1     1     2 ar  
     2     1     6 ar  
     3     1    24 1   
     4     2     3 ar  
     5     2    28 1   
     6     3     4 ar  
     7     3    25 1   
     8     4     5 ar  
     9     4    29 1   
    10     5     6 ar  
    11     5    30 1   
    12     6    31 1   
    13     7     8 ar  
    14     7    11 1   
    15     7    14 ar  
    16     8     9 1   
    17     8    13 ar  
    18     9    10 1   
    19     9    49 1   
    20    10    11 2   
    21    10    23 1   
    22    12    13 ar  
    23    12    15 ar  
    24    12    22 1   
    25    13    32 1   
    26    14    15 ar  
    27    14    33 1   
    28    15    34 1   
    29    16    17 ar  
    30    16    21 ar  
    31    16    35 1   
    32    17    18 ar  
    33    17    48 1   
    34    18    19 ar  
    35    19    20 ar  
    36    19    50 1   
    37    20    21 ar  
    38    20    22 1   
    39    21    36 1   
    40    23    24 1   
    41    23    40 1   
    42    23    41 1   
    43    25    26 1   
    44    25    27 1   
    45    37    49 1   
    46    38    49 1   
    47    39    49 1   
    48    42    48 1   
    49    43    48 1   
    50    44    48 1   
    51    45    50 1   
    52    46    50 1   
    53    47    50 1   
@<TRIPOS>SUBSTRUCTURE
     1 B0X         1 TEMP              0 ****  ****    0 ROOT
