@<TRIPOS>MOLECULE
B0X
   50    53     1     0     0
SMALL
No Charge or Current Charge


@<TRIPOS>ATOM
      1 C1           4.8360    -0.5380    -0.0200 ca         1 B0X       0.085100
      2 C2           5.5520     0.6570     0.1610 ca         1 B0X      -0.110000
      3 C3           6.9600     0.6520     0.3110 ca         1 B0X      -0.105600
      4 C4           7.6340    -0.5920     0.2740 ca         1 B0X      -0.108000
      5 C5           6.9210    -1.7890     0.0930 ca         1 B0X      -0.116000
      6 C6           5.5260    -1.7680    -0.0540 ca         1 B0X      -0.220000
      7 C7          -0.8370    -0.8620    -1.1150 ca         1 B0X       0.069400
      8 C8          -0.8040    -0.4020     0.1720 ca         1 B0X      -0.077200
      9 N9           0.4630    -0.6170     0.6250 na         1 B0X      -0.155600
     10 C10          1.1830    -1.2110    -0.4200 cc         1 B0X       0.435800
     11 N11          0.3960    -1.3770    -1.5090 nd         1 B0X      -0.572100
     12 C12         -3.1170     0.2490     0.0650 ca         1 B0X       0.092100
     13 C13         -1.9200     0.1680     0.8040 ca         1 B0X      -0.109000
     14 C14         -2.0150    -0.7810    -1.8730 ca         1 B0X      -0.038000
     15 C15         -3.1630    -0.2150    -1.2740 ca         1 B0X      -0.160000
     16 C16         -7.1050    -1.4330     0.1560 ca         1 B0X      -0.137000
     17 C17         -8.1180    -0.4600     0.0440 ca         1 B0X       0.323300
     18 N18         -7.8710     0.8670     0.1340 nb         1 B0X      -0.668000
     19 C19         -6.5890     1.2650     0.3310 ca         1 B0X       0.344300
     20 C20         -5.5080     0.3550     0.4410 ca         1 B0X       0.082100
     21 C21         -5.7750    -1.0250     0.3610 ca         1 B0X      -0.139000
     22 O22         -4.2230     0.8150     0.6570 os         1 B0X      -0.245200
     23 C24          2.6370    -1.6250    -0.3340 c3         1 B0X       0.147300
     24 O25          3.4670    -0.4540    -0.1570 os         1 B0X      -0.354100
     25 C26          7.7280     1.9520     0.5070 c          1 B0X       0.712600
     26 O27          7.1030     3.0040     0.5330 o          1 B0X      -0.715500
     27 O28          8.9440     1.9020     0.6330 o          1 B0X      -0.715500
     28 H1           5.0030     1.5950     0.1850 ha         1 B0X       0.142000
     29 H2           8.7150    -0.6330     0.3860 ha         1 B0X       0.131000
     30 H3           7.4550    -2.7370     0.0660 ha         1 B0X       0.086000
     31 H4           5.0030    -2.7090    -0.1930 ha         1 B0X       0.088000
     32 H5          -1.8720     0.5320     1.8270 ha         1 B0X       0.133000
     33 H6          -2.0390    -1.1420    -2.8980 ha         1 B0X       0.129000
     34 H7          -4.0800    -0.1340    -1.8520 ha         1 B0X       0.122000
     35 H8          -7.3510    -2.4890     0.0880 ha         1 B0X       0.119000
     36 H9          -4.9790    -1.7600     0.4600 ha         1 B0X       0.135000
     37 H10          0.2380    -0.6980     2.7240 h1         1 B0X       0.059033
     38 H11          1.9290    -0.6100     2.1590 h1         1 B0X       0.059033
     39 H12          0.8900     0.8420     2.0890 h1         1 B0X       0.059033
     40 H13          2.7540    -2.3150     0.5100 h1         1 B0X       0.053700
     41 H14          2.9120    -2.1570    -1.2530 h1         1 B0X       0.053700
     42 H16        -10.1200    -0.8380     0.7730 hc         1 B0X       0.045033
     43 H17        -10.0670    -0.1780    -0.8720 hc         1 B0X       0.045033
     44 H18         -9.6440    -1.8710    -0.5840 hc         1 B0X       0.045033
     45 H19         -5.9420     3.0360     1.3990 hc         1 B0X       0.052033
     46 H20         -5.6680     3.1030    -0.3500 hc         1 B0X       0.052033
     47 H21         -7.2980     3.3310     0.3000 hc         1 B0X       0.052033
     48 C29         -9.5660    -0.8580    -0.1720 c3         1 B0X      -0.134400
     49 C23          0.9090    -0.2490     1.9810 c3         1 B0X       0.065900
     50 C30         -6.3660     2.7670     0.4240 c3         1 B0X      -0.135400
@<TRIPOS>BOND
     1     1     2 ar  
     2     1     6 ar  
     3     1    24 1   
     4     2     3 ar  
     5     2    28 1   
     6     3     4 ar  
     7     3    25 1   
     8     4     5 ar  
     9     4    29 1   
    10     5     6 ar  
    11     5    30 1   
    12     6    31 1   
    13     7     8 ar  
    14     7    11 1   
    15     7    14 ar  
    16     8     9 1   
    17     8    13 ar  
    18     9    10 1   
    19     9    49 1   
    20    10    11 2   
    21    10    23 1   
    22    12    13 ar  
    23    12    15 ar  
    24    12    22 1   
    25    13    32 1   
    26    14    15 ar  
    27    14    33 1   
    28    15    34 1   
    29    16    17 ar  
    30    16    21 ar  
    31    16    35 1   
    32    17    18 ar  
    33    17    48 1   
    34    18    19 ar  
    35    19    20 ar  
    36    19    50 1   
    37    20    21 ar  
    38    20    22 1   
    39    21    36 1   
    40    23    24 1   
    41    23    40 1   
    42    23    41 1   
    43    25    26 1   
    44    25    27 1   
    45    37    49 1   
    46    38    49 1   
    47    39    49 1   
    48    42    48 1   
    49    43    48 1   
    50    44    48 1   
    51    45    50 1   
    52    46    50 1   
    53    47    50 1   
@<TRIPOS>SUBSTRUCTURE
     1 B0X         1 TEMP              0 ****  ****    0 ROOT
