@<TRIPOS>MOLECULE
B0Y
   32    33     1     0     0
SMALL
No Charge or Current Charge


@<TRIPOS>ATOM
      1 N1          -0.6260    -1.1940     0.0110 ns         1 B0Y      -0.505900
      2 N3          -4.2620     1.1550    -0.2190 na         1 B0Y       0.133800
      3 C4           4.0590    -0.8000     0.0640 cc         1 B0Y      -0.151000
      4 C5           3.0100    -1.7470    -0.0280 cc         1 B0Y      -0.060000
      5 C6           1.7570    -1.1850     0.0220 cd         1 B0Y      -0.284600
      6 C7           0.5040    -1.9660    -0.0590 c          1 B0Y       0.641700
      7 C8          -1.9820    -1.7170    -0.0490 c3         1 B0Y       0.193300
      8 C10         -3.9270    -0.4720     1.0790 cc         1 B0Y       0.257900
      9 C1           4.5440     2.5270    -1.0130 c3         1 B0Y      -0.089100
     10 C3           3.6250     0.4950     0.1840 cd         1 B0Y      -0.177300
     11 S1           1.8510     0.5790     0.1920 ss         1 B0Y       0.188000
     12 O1           0.4640    -3.1820    -0.1770 o          1 B0Y      -0.604100
     13 C9          -2.9880    -0.6080     0.0430 cc         1 B0Y      -0.242300
     14 N2          -4.7140     0.5780     0.9590 nd         1 B0Y      -0.525800
     15 C11         -3.2050     0.4450    -0.7970 cd         1 B0Y      -0.154000
     16 H1          -0.5000    -0.1960     0.1090 hn         1 B0Y       0.317500
     17 H2           5.1050    -1.0920     0.0390 ha         1 B0Y       0.137000
     18 H3           3.2000    -2.8130    -0.1300 ha         1 B0Y       0.154000
     19 H4          -2.1160    -2.2560    -0.9970 h1         1 B0Y       0.057200
     20 H5          -2.1290    -2.4270     0.7760 h1         1 B0Y       0.057200
     21 H6          -4.0570    -1.1240     1.9320 h4         1 B0Y       0.043100
     22 H7           4.9810     1.9070    -1.8050 hc         1 B0Y       0.038367
     23 H8           3.5460     2.8490    -1.3350 hc         1 B0Y       0.038367
     24 H9           5.1690     3.4190    -0.8900 hc         1 B0Y       0.038367
     25 H10          5.4800     1.4790     0.6280 hc         1 B0Y       0.053700
     26 H11          4.0520     2.3930     1.0880 hc         1 B0Y       0.053700
     27 H12         -2.7200     0.7400    -1.7210 h4         1 B0Y       0.155000
     28 H13         -4.7760     3.1860    -0.0040 h1         1 B0Y       0.057367
     29 H14         -4.3800     2.6790    -1.6730 h1         1 B0Y       0.057367
     30 H15         -5.9410     2.2020    -0.9420 h1         1 B0Y       0.057367
     31 C12         -4.8780     2.3820    -0.7420 c3         1 B0Y       0.072900
     32 C2           4.4640     1.7400     0.3080 c3         1 B0Y      -0.011100
@<TRIPOS>BOND
     1     1     6 1   
     2     1     7 1   
     3     1    16 1   
     4     2    14 1   
     5     2    15 1   
     6     2    31 1   
     7     3     4 1   
     8     3    10 2   
     9     3    17 1   
    10     4     5 2   
    11     4    18 1   
    12     5     6 1   
    13     5    11 1   
    14     6    12 2   
    15     7    13 1   
    16     7    19 1   
    17     7    20 1   
    18     8    13 1   
    19     8    14 2   
    20     8    21 1   
    21     9    22 1   
    22     9    23 1   
    23     9    24 1   
    24     9    32 1   
    25    10    11 1   
    26    10    32 1   
    27    13    15 2   
    28    15    27 1   
    29    25    32 1   
    30    26    32 1   
    31    28    31 1   
    32    29    31 1   
    33    30    31 1   
@<TRIPOS>SUBSTRUCTURE
     1 B0Y         1 TEMP              0 ****  ****    0 ROOT
