@<TRIPOS>MOLECULE
B0Y
   32    33     1     0     0
SMALL
abcg2


@<TRIPOS>ATOM
      1 N1          -0.5840    -1.0260    -0.1070 ns         1 B0Y      -0.505900
      2 N3          -4.3850     1.1350    -0.2780 na         1 B0Y       0.133800
      3 C4           4.1250    -0.9410     0.0480 cc         1 B0Y      -0.151000
      4 C5           3.0170    -1.8090    -0.0930 cc         1 B0Y      -0.060000
      5 C6           1.8170    -1.1630    -0.0060 cd         1 B0Y      -0.284600
      6 C7           0.4980    -1.8200    -0.1100 c          1 B0Y       0.641700
      7 C8          -1.9330    -1.5580    -0.2160 c3         1 B0Y       0.193300
      8 C10         -3.3930     0.0480     1.2290 cc         1 B0Y       0.257900
      9 C1           4.5540     2.5650    -0.7070 c3         1 B0Y      -0.089100
     10 C3           3.7700     0.3630     0.2490 cd         1 B0Y      -0.177300
     11 S1           2.0570     0.5280     0.2600 ss         1 B0Y       0.188000
     12 O1           0.4180    -3.0400    -0.1880 o          1 B0Y      -0.604100
     13 C9          -2.9360    -0.4790     0.0080 cc         1 B0Y      -0.242300
     14 N2          -4.2670     1.0180     1.0410 nd         1 B0Y      -0.525800
     15 C11         -3.6090     0.2630    -0.9400 cd         1 B0Y      -0.154000
     16 H1          -0.4890    -0.0230    -0.1350 hn         1 B0Y       0.317500
     17 H2           5.1550    -1.2650     0.0070 ha         1 B0Y       0.137000
     18 H3           3.1020    -2.8740    -0.2550 ha         1 B0Y       0.154000
     19 H4          -2.0830    -2.0120    -1.1990 h1         1 B0Y       0.057200
     20 H5          -2.0640    -2.3510     0.5220 h1         1 B0Y       0.057200
     21 H6          -3.1130    -0.2530     2.2280 h4         1 B0Y       0.043100
     22 H7           4.8000     2.1080    -1.6660 hc         1 B0Y       0.038367
     23 H8           3.5490     2.9820    -0.7810 hc         1 B0Y       0.038367
     24 H9           5.2430     3.3920    -0.5390 hc         1 B0Y       0.038367
     25 H10          5.6850     1.1840     0.5040 hc         1 B0Y       0.053700
     26 H11          4.4360     2.0390     1.3800 hc         1 B0Y       0.053700
     27 H12         -3.5870     0.2210    -2.0170 h4         1 B0Y       0.155000
     28 H13         -5.0180     3.1110    -0.5050 h1         1 B0Y       0.057367
     29 H14         -5.2170     2.0730    -1.9240 h1         1 B0Y       0.057367
     30 H15         -6.3120     1.8990    -0.5450 h1         1 B0Y       0.057367
     31 C12         -5.2870     2.1120    -0.8410 c3         1 B0Y       0.072900
     32 C2           4.6590     1.5490     0.4290 c3         1 B0Y      -0.011100
@<TRIPOS>BOND
     1     1     6 1   
     2     1     7 1   
     3     1    16 1   
     4     2    14 1   
     5     2    15 1   
     6     2    31 1   
     7     3     4 1   
     8     3    10 2   
     9     3    17 1   
    10     4     5 2   
    11     4    18 1   
    12     5     6 1   
    13     5    11 1   
    14     6    12 2   
    15     7    13 1   
    16     7    19 1   
    17     7    20 1   
    18     8    13 1   
    19     8    14 2   
    20     8    21 1   
    21     9    22 1   
    22     9    23 1   
    23     9    24 1   
    24     9    32 1   
    25    10    11 1   
    26    10    32 1   
    27    13    15 2   
    28    15    27 1   
    29    25    32 1   
    30    26    32 1   
    31    28    31 1   
    32    29    31 1   
    33    30    31 1   
@<TRIPOS>SUBSTRUCTURE
     1 B0Y         1 TEMP              0 ****  ****    0 ROOT
